
-------------------------------------------------------------------------
|    ___ _   _ ___                                                      |
|   / __| | | |_  )   Release 8.0.1 "Harrier"                           |
|   \__ \ |_| |/ /                                                      |
|   |___/\___//___|   Suite (Mesh Deformation Code)                     |
|                                                                       |
-------------------------------------------------------------------------
| SU2 Project Website: https://su2code.github.io                        |
|                                                                       |
| The SU2 Project is maintained by the SU2 Foundation                   |
| (http://su2foundation.org)                                            |
-------------------------------------------------------------------------
| Copyright 2012-2024, SU2 Contributors                                 |
|                                                                       |
| SU2 is free software; you can redistribute it and/or                  |
| modify it under the terms of the GNU Lesser General Public            |
| License as published by the Free Software Foundation; either          |
| version 2.1 of the License, or (at your option) any later version.    |
|                                                                       |
| SU2 is distributed in the hope that it will be useful,                |
| but WITHOUT ANY WARRANTY; without even the implied warranty of        |
| MERCHANTABILITY or FITNESS FOR A PARTICULAR PURPOSE. See the GNU      |
| Lesser General Public License for more details.                       |
|                                                                       |
| You should have received a copy of the GNU Lesser General Public      |
| License along with SU2. If not, see <http://www.gnu.org/licenses/>.   |
-------------------------------------------------------------------------

----------------- Physical Case Definition ( Zone 0 ) -------------------
Input mesh file name: ../wedge_with_ffd.su2
Input sensitivity file name: restart_adj_cl.dat.

-------------- Surface deformation parameters ( Zone 0 ) ----------------
Design variables definition (markers <-> value <-> param):
FFD 2D (control point) <-> Wall <-> 0 <-> ( Wall, 0, 0, 1, 0 )
FFD 2D (control point) <-> Wall <-> 0 <-> ( Wall, 1, 0, 1, 0 )
FFD 2D (control point) <-> Wall <-> 0 <-> ( Wall, 2, 0, 1, 0 )
FFD 2D (control point) <-> Wall <-> 0 <-> ( Wall, 3, 0, 1, 0 )
FFD 2D (control point) <-> Wall <-> 0 <-> ( Wall, 4, 0, 1, 0 )
FFD 2D (control point) <-> Wall <-> 0 <-> ( Wall, 5, 0, 1, 0 )
FFD 2D (control point) <-> Wall <-> 0 <-> ( Wall, 6, 0, 1, 0 )
FFD 2D (control point) <-> Wall <-> 0 <-> ( Wall, 7, 0, 1, 0 )
FFD 2D (control point) <-> Wall <-> 0 <-> ( Wall, 8, 0, 1, 0 )
FFD 2D (control point) <-> Wall <-> 0 <-> ( Wall, 9, 0, 1, 0 )
FFD 2D (control point) <-> Wall <-> 0 <-> ( Wall, 10, 0, 1, 0 )
FFD 2D (control point) <-> Wall <-> 0 <-> ( Wall, 11, 0, 1, 0 )
FFD 2D (control point) <-> Wall <-> 0 <-> ( Wall, 12, 0, 1, 0 )
FFD 2D (control point) <-> Wall <-> 0 <-> ( Wall, 13, 0, 1, 0 )
FFD 2D (control point) <-> Wall <-> 0 <-> ( Wall, 14, 0, 1, 0 )
FFD 2D (control point) <-> Wall <-> 0 <-> ( Wall, 15, 0, 1, 0 )
FFD 2D (control point) <-> Wall <-> 0 <-> ( Wall, 16, 0, 1, 0 )
FFD 2D (control point) <-> Wall <-> 0 <-> ( Wall, 17, 0, 1, 0 )
FFD 2D (control point) <-> Wall <-> 0 <-> ( Wall, 18, 0, 1, 0 )
FFD 2D (control point) <-> Wall <-> 0 <-> ( Wall, 19, 0, 1, 0 )
FFD 2D (control point) <-> Wall <-> 0 <-> ( Wall, 20, 0, 1, 0 )
FFD 2D (control point) <-> Wall <-> 0 <-> ( Wall, 0, 1, 1, 0 )
FFD 2D (control point) <-> Wall <-> 0 <-> ( Wall, 1, 1, 1, 0 )
FFD 2D (control point) <-> Wall <-> 0 <-> ( Wall, 2, 1, 1, 0 )
FFD 2D (control point) <-> Wall <-> 0 <-> ( Wall, 3, 1, 1, 0 )
FFD 2D (control point) <-> Wall <-> 0 <-> ( Wall, 4, 1, 1, 0 )
FFD 2D (control point) <-> Wall <-> 0 <-> ( Wall, 5, 1, 1, 0 )
FFD 2D (control point) <-> Wall <-> 0 <-> ( Wall, 6, 1, 1, 0 )
FFD 2D (control point) <-> Wall <-> 0 <-> ( Wall, 7, 1, 1, 0 )
FFD 2D (control point) <-> Wall <-> 0 <-> ( Wall, 8, 1, 1, 0 )
FFD 2D (control point) <-> Wall <-> 0 <-> ( Wall, 9, 1, 1, 0 )
FFD 2D (control point) <-> Wall <-> 0 <-> ( Wall, 10, 1, 1, 0 )
FFD 2D (control point) <-> Wall <-> 0 <-> ( Wall, 11, 1, 1, 0 )
FFD 2D (control point) <-> Wall <-> 0 <-> ( Wall, 12, 1, 1, 0 )
FFD 2D (control point) <-> Wall <-> 0 <-> ( Wall, 13, 1, 1, 0 )
FFD 2D (control point) <-> Wall <-> 0 <-> ( Wall, 14, 1, 1, 0 )
FFD 2D (control point) <-> Wall <-> 0 <-> ( Wall, 15, 1, 1, 0 )
FFD 2D (control point) <-> Wall <-> 0 <-> ( Wall, 16, 1, 1, 0 )
FFD 2D (control point) <-> Wall <-> 0 <-> ( Wall, 17, 1, 1, 0 )
FFD 2D (control point) <-> Wall <-> 0 <-> ( Wall, 18, 1, 1, 0 )
FFD 2D (control point) <-> Wall <-> 0 <-> ( Wall, 19, 1, 1, 0 )
FFD 2D (control point) <-> Wall <-> 0 <-> ( Wall, 20, 1, 1, 0 )
FFD 2D (control point) <-> Wall <-> 0 <-> ( Wall, 0, 2, 1, 0 )
FFD 2D (control point) <-> Wall <-> 0 <-> ( Wall, 1, 2, 1, 0 )
FFD 2D (control point) <-> Wall <-> 0 <-> ( Wall, 2, 2, 1, 0 )
FFD 2D (control point) <-> Wall <-> 0 <-> ( Wall, 3, 2, 1, 0 )
FFD 2D (control point) <-> Wall <-> 0 <-> ( Wall, 4, 2, 1, 0 )
FFD 2D (control point) <-> Wall <-> 0 <-> ( Wall, 5, 2, 1, 0 )
FFD 2D (control point) <-> Wall <-> 0 <-> ( Wall, 6, 2, 1, 0 )
FFD 2D (control point) <-> Wall <-> 0 <-> ( Wall, 7, 2, 1, 0 )
FFD 2D (control point) <-> Wall <-> 0 <-> ( Wall, 8, 2, 1, 0 )
FFD 2D (control point) <-> Wall <-> 0 <-> ( Wall, 9, 2, 1, 0 )
FFD 2D (control point) <-> Wall <-> 0 <-> ( Wall, 10, 2, 1, 0 )
FFD 2D (control point) <-> Wall <-> 0 <-> ( Wall, 11, 2, 1, 0 )
FFD 2D (control point) <-> Wall <-> 0 <-> ( Wall, 12, 2, 1, 0 )
FFD 2D (control point) <-> Wall <-> 0 <-> ( Wall, 13, 2, 1, 0 )
FFD 2D (control point) <-> Wall <-> 0 <-> ( Wall, 14, 2, 1, 0 )
FFD 2D (control point) <-> Wall <-> 0 <-> ( Wall, 15, 2, 1, 0 )
FFD 2D (control point) <-> Wall <-> 0 <-> ( Wall, 16, 2, 1, 0 )
FFD 2D (control point) <-> Wall <-> 0 <-> ( Wall, 17, 2, 1, 0 )
FFD 2D (control point) <-> Wall <-> 0 <-> ( Wall, 18, 2, 1, 0 )
FFD 2D (control point) <-> Wall <-> 0 <-> ( Wall, 19, 2, 1, 0 )
FFD 2D (control point) <-> Wall <-> 0 <-> ( Wall, 20, 2, 1, 0 )
FFD 2D (control point) <-> Wall <-> 0 <-> ( Wall, 0, 3, 1, 0 )
FFD 2D (control point) <-> Wall <-> 0 <-> ( Wall, 1, 3, 1, 0 )
FFD 2D (control point) <-> Wall <-> 0 <-> ( Wall, 2, 3, 1, 0 )
FFD 2D (control point) <-> Wall <-> 0 <-> ( Wall, 3, 3, 1, 0 )
FFD 2D (control point) <-> Wall <-> 0 <-> ( Wall, 4, 3, 1, 0 )
FFD 2D (control point) <-> Wall <-> 0 <-> ( Wall, 5, 3, 1, 0 )
FFD 2D (control point) <-> Wall <-> 0 <-> ( Wall, 6, 3, 1, 0 )
FFD 2D (control point) <-> Wall <-> 0 <-> ( Wall, 7, 3, 1, 0 )
FFD 2D (control point) <-> Wall <-> 0 <-> ( Wall, 8, 3, 1, 0 )
FFD 2D (control point) <-> Wall <-> 0 <-> ( Wall, 9, 3, 1, 0 )
FFD 2D (control point) <-> Wall <-> 0 <-> ( Wall, 10, 3, 1, 0 )
FFD 2D (control point) <-> Wall <-> 0 <-> ( Wall, 11, 3, 1, 0 )
FFD 2D (control point) <-> Wall <-> 0 <-> ( Wall, 12, 3, 1, 0 )
FFD 2D (control point) <-> Wall <-> 0 <-> ( Wall, 13, 3, 1, 0 )
FFD 2D (control point) <-> Wall <-> 0 <-> ( Wall, 14, 3, 1, 0 )
FFD 2D (control point) <-> Wall <-> 0 <-> ( Wall, 15, 3, 1, 0 )
FFD 2D (control point) <-> Wall <-> 0 <-> ( Wall, 16, 3, 1, 0 )
FFD 2D (control point) <-> Wall <-> 0 <-> ( Wall, 17, 3, 1, 0 )
FFD 2D (control point) <-> Wall <-> 0 <-> ( Wall, 18, 3, 1, 0 )
FFD 2D (control point) <-> Wall <-> 0 <-> ( Wall, 19, 3, 1, 0 )
FFD 2D (control point) <-> Wall <-> 0 <-> ( Wall, 20, 3, 1, 0 )
FFD 2D (control point) <-> Wall <-> 0 <-> ( Wall, 0, 4, 1, 0 )
FFD 2D (control point) <-> Wall <-> 0 <-> ( Wall, 1, 4, 1, 0 )
FFD 2D (control point) <-> Wall <-> 0 <-> ( Wall, 2, 4, 1, 0 )
FFD 2D (control point) <-> Wall <-> 0 <-> ( Wall, 3, 4, 1, 0 )
FFD 2D (control point) <-> Wall <-> 0 <-> ( Wall, 4, 4, 1, 0 )
FFD 2D (control point) <-> Wall <-> 0 <-> ( Wall, 5, 4, 1, 0 )
FFD 2D (control point) <-> Wall <-> 0 <-> ( Wall, 6, 4, 1, 0 )
FFD 2D (control point) <-> Wall <-> 0 <-> ( Wall, 7, 4, 1, 0 )
FFD 2D (control point) <-> Wall <-> 0 <-> ( Wall, 8, 4, 1, 0 )
FFD 2D (control point) <-> Wall <-> 0 <-> ( Wall, 9, 4, 1, 0 )
FFD 2D (control point) <-> Wall <-> 0 <-> ( Wall, 10, 4, 1, 0 )
FFD 2D (control point) <-> Wall <-> 0 <-> ( Wall, 11, 4, 1, 0 )
FFD 2D (control point) <-> Wall <-> 0 <-> ( Wall, 12, 4, 1, 0 )
FFD 2D (control point) <-> Wall <-> 0 <-> ( Wall, 13, 4, 1, 0 )
FFD 2D (control point) <-> Wall <-> 0 <-> ( Wall, 14, 4, 1, 0 )
FFD 2D (control point) <-> Wall <-> 0 <-> ( Wall, 15, 4, 1, 0 )
FFD 2D (control point) <-> Wall <-> 0 <-> ( Wall, 16, 4, 1, 0 )
FFD 2D (control point) <-> Wall <-> 0 <-> ( Wall, 17, 4, 1, 0 )
FFD 2D (control point) <-> Wall <-> 0 <-> ( Wall, 18, 4, 1, 0 )
FFD 2D (control point) <-> Wall <-> 0 <-> ( Wall, 19, 4, 1, 0 )
FFD 2D (control point) <-> Wall <-> 0 <-> ( Wall, 20, 4, 1, 0 )
FFD 2D (control point) <-> Wall <-> 0 <-> ( Wall, 0, 5, 1, 0 )
FFD 2D (control point) <-> Wall <-> 0 <-> ( Wall, 1, 5, 1, 0 )
FFD 2D (control point) <-> Wall <-> 0 <-> ( Wall, 2, 5, 1, 0 )
FFD 2D (control point) <-> Wall <-> 0 <-> ( Wall, 3, 5, 1, 0 )
FFD 2D (control point) <-> Wall <-> 0 <-> ( Wall, 4, 5, 1, 0 )
FFD 2D (control point) <-> Wall <-> 0 <-> ( Wall, 5, 5, 1, 0 )
FFD 2D (control point) <-> Wall <-> 0 <-> ( Wall, 6, 5, 1, 0 )
FFD 2D (control point) <-> Wall <-> 0 <-> ( Wall, 7, 5, 1, 0 )
FFD 2D (control point) <-> Wall <-> 0 <-> ( Wall, 8, 5, 1, 0 )
FFD 2D (control point) <-> Wall <-> 0 <-> ( Wall, 9, 5, 1, 0 )
FFD 2D (control point) <-> Wall <-> 0 <-> ( Wall, 10, 5, 1, 0 )
FFD 2D (control point) <-> Wall <-> 0 <-> ( Wall, 11, 5, 1, 0 )
FFD 2D (control point) <-> Wall <-> 0 <-> ( Wall, 12, 5, 1, 0 )
FFD 2D (control point) <-> Wall <-> 0 <-> ( Wall, 13, 5, 1, 0 )
FFD 2D (control point) <-> Wall <-> 0 <-> ( Wall, 14, 5, 1, 0 )
FFD 2D (control point) <-> Wall <-> 0 <-> ( Wall, 15, 5, 1, 0 )
FFD 2D (control point) <-> Wall <-> 0 <-> ( Wall, 16, 5, 1, 0 )
FFD 2D (control point) <-> Wall <-> 0 <-> ( Wall, 17, 5, 1, 0 )
FFD 2D (control point) <-> Wall <-> 0 <-> ( Wall, 18, 5, 1, 0 )
FFD 2D (control point) <-> Wall <-> 0 <-> ( Wall, 19, 5, 1, 0 )
FFD 2D (control point) <-> Wall <-> 0 <-> ( Wall, 20, 5, 1, 0 )
FFD 2D (control point) <-> Wall <-> 0 <-> ( Wall, 0, 6, 1, 0 )
FFD 2D (control point) <-> Wall <-> 0 <-> ( Wall, 1, 6, 1, 0 )
FFD 2D (control point) <-> Wall <-> 0 <-> ( Wall, 2, 6, 1, 0 )
FFD 2D (control point) <-> Wall <-> 0 <-> ( Wall, 3, 6, 1, 0 )
FFD 2D (control point) <-> Wall <-> 0 <-> ( Wall, 4, 6, 1, 0 )
FFD 2D (control point) <-> Wall <-> 0 <-> ( Wall, 5, 6, 1, 0 )
FFD 2D (control point) <-> Wall <-> 0 <-> ( Wall, 6, 6, 1, 0 )
FFD 2D (control point) <-> Wall <-> 0 <-> ( Wall, 7, 6, 1, 0 )
FFD 2D (control point) <-> Wall <-> 0 <-> ( Wall, 8, 6, 1, 0 )
FFD 2D (control point) <-> Wall <-> 0 <-> ( Wall, 9, 6, 1, 0 )
FFD 2D (control point) <-> Wall <-> 0 <-> ( Wall, 10, 6, 1, 0 )
FFD 2D (control point) <-> Wall <-> 0 <-> ( Wall, 11, 6, 1, 0 )
FFD 2D (control point) <-> Wall <-> 0 <-> ( Wall, 12, 6, 1, 0 )
FFD 2D (control point) <-> Wall <-> 0 <-> ( Wall, 13, 6, 1, 0 )
FFD 2D (control point) <-> Wall <-> 0 <-> ( Wall, 14, 6, 1, 0 )
FFD 2D (control point) <-> Wall <-> 0 <-> ( Wall, 15, 6, 1, 0 )
FFD 2D (control point) <-> Wall <-> 0 <-> ( Wall, 16, 6, 1, 0 )
FFD 2D (control point) <-> Wall <-> 0 <-> ( Wall, 17, 6, 1, 0 )
FFD 2D (control point) <-> Wall <-> 0 <-> ( Wall, 18, 6, 1, 0 )
FFD 2D (control point) <-> Wall <-> 0 <-> ( Wall, 19, 6, 1, 0 )
FFD 2D (control point) <-> Wall <-> 0 <-> ( Wall, 20, 6, 1, 0 )
FFD 2D (control point) <-> Wall <-> 0 <-> ( Wall, 0, 7, 1, 0 )
FFD 2D (control point) <-> Wall <-> 0 <-> ( Wall, 1, 7, 1, 0 )
FFD 2D (control point) <-> Wall <-> 0 <-> ( Wall, 2, 7, 1, 0 )
FFD 2D (control point) <-> Wall <-> 0 <-> ( Wall, 3, 7, 1, 0 )
FFD 2D (control point) <-> Wall <-> 0 <-> ( Wall, 4, 7, 1, 0 )
FFD 2D (control point) <-> Wall <-> 0 <-> ( Wall, 5, 7, 1, 0 )
FFD 2D (control point) <-> Wall <-> 0 <-> ( Wall, 6, 7, 1, 0 )
FFD 2D (control point) <-> Wall <-> 0 <-> ( Wall, 7, 7, 1, 0 )
FFD 2D (control point) <-> Wall <-> 0 <-> ( Wall, 8, 7, 1, 0 )
FFD 2D (control point) <-> Wall <-> 0 <-> ( Wall, 9, 7, 1, 0 )
FFD 2D (control point) <-> Wall <-> 0 <-> ( Wall, 10, 7, 1, 0 )
FFD 2D (control point) <-> Wall <-> 0 <-> ( Wall, 11, 7, 1, 0 )
FFD 2D (control point) <-> Wall <-> 0 <-> ( Wall, 12, 7, 1, 0 )
FFD 2D (control point) <-> Wall <-> 0 <-> ( Wall, 13, 7, 1, 0 )
FFD 2D (control point) <-> Wall <-> 0 <-> ( Wall, 14, 7, 1, 0 )
FFD 2D (control point) <-> Wall <-> 0 <-> ( Wall, 15, 7, 1, 0 )
FFD 2D (control point) <-> Wall <-> 0 <-> ( Wall, 16, 7, 1, 0 )
FFD 2D (control point) <-> Wall <-> 0 <-> ( Wall, 17, 7, 1, 0 )
FFD 2D (control point) <-> Wall <-> 0 <-> ( Wall, 18, 7, 1, 0 )
FFD 2D (control point) <-> Wall <-> 0 <-> ( Wall, 19, 7, 1, 0 )
FFD 2D (control point) <-> Wall <-> 0 <-> ( Wall, 20, 7, 1, 0 )
FFD 2D (control point) <-> Wall <-> 0 <-> ( Wall, 0, 8, 1, 0 )
FFD 2D (control point) <-> Wall <-> 0 <-> ( Wall, 1, 8, 1, 0 )
FFD 2D (control point) <-> Wall <-> 0 <-> ( Wall, 2, 8, 1, 0 )
FFD 2D (control point) <-> Wall <-> 0 <-> ( Wall, 3, 8, 1, 0 )
FFD 2D (control point) <-> Wall <-> 0 <-> ( Wall, 4, 8, 1, 0 )
FFD 2D (control point) <-> Wall <-> 0 <-> ( Wall, 5, 8, 1, 0 )
FFD 2D (control point) <-> Wall <-> 0 <-> ( Wall, 6, 8, 1, 0 )
FFD 2D (control point) <-> Wall <-> 0 <-> ( Wall, 7, 8, 1, 0 )
FFD 2D (control point) <-> Wall <-> 0 <-> ( Wall, 8, 8, 1, 0 )
FFD 2D (control point) <-> Wall <-> 0 <-> ( Wall, 9, 8, 1, 0 )
FFD 2D (control point) <-> Wall <-> 0 <-> ( Wall, 10, 8, 1, 0 )
FFD 2D (control point) <-> Wall <-> 0 <-> ( Wall, 11, 8, 1, 0 )
FFD 2D (control point) <-> Wall <-> 0 <-> ( Wall, 12, 8, 1, 0 )
FFD 2D (control point) <-> Wall <-> 0 <-> ( Wall, 13, 8, 1, 0 )
FFD 2D (control point) <-> Wall <-> 0 <-> ( Wall, 14, 8, 1, 0 )
FFD 2D (control point) <-> Wall <-> 0 <-> ( Wall, 15, 8, 1, 0 )
FFD 2D (control point) <-> Wall <-> 0 <-> ( Wall, 16, 8, 1, 0 )
FFD 2D (control point) <-> Wall <-> 0 <-> ( Wall, 17, 8, 1, 0 )
FFD 2D (control point) <-> Wall <-> 0 <-> ( Wall, 18, 8, 1, 0 )
FFD 2D (control point) <-> Wall <-> 0 <-> ( Wall, 19, 8, 1, 0 )
FFD 2D (control point) <-> Wall <-> 0 <-> ( Wall, 20, 8, 1, 0 )
FFD 2D (control point) <-> Wall <-> 0 <-> ( Wall, 0, 9, 1, 0 )
FFD 2D (control point) <-> Wall <-> 0 <-> ( Wall, 1, 9, 1, 0 )
FFD 2D (control point) <-> Wall <-> 0 <-> ( Wall, 2, 9, 1, 0 )
FFD 2D (control point) <-> Wall <-> 0 <-> ( Wall, 3, 9, 1, 0 )
FFD 2D (control point) <-> Wall <-> 0 <-> ( Wall, 4, 9, 1, 0 )
FFD 2D (control point) <-> Wall <-> 0 <-> ( Wall, 5, 9, 1, 0 )
FFD 2D (control point) <-> Wall <-> 0 <-> ( Wall, 6, 9, 1, 0 )
FFD 2D (control point) <-> Wall <-> 0 <-> ( Wall, 7, 9, 1, 0 )
FFD 2D (control point) <-> Wall <-> 0 <-> ( Wall, 8, 9, 1, 0 )
FFD 2D (control point) <-> Wall <-> 0 <-> ( Wall, 9, 9, 1, 0 )
FFD 2D (control point) <-> Wall <-> 0 <-> ( Wall, 10, 9, 1, 0 )
FFD 2D (control point) <-> Wall <-> 0 <-> ( Wall, 11, 9, 1, 0 )
FFD 2D (control point) <-> Wall <-> 0 <-> ( Wall, 12, 9, 1, 0 )
FFD 2D (control point) <-> Wall <-> 0 <-> ( Wall, 13, 9, 1, 0 )
FFD 2D (control point) <-> Wall <-> 0 <-> ( Wall, 14, 9, 1, 0 )
FFD 2D (control point) <-> Wall <-> 0 <-> ( Wall, 15, 9, 1, 0 )
FFD 2D (control point) <-> Wall <-> 0 <-> ( Wall, 16, 9, 1, 0 )
FFD 2D (control point) <-> Wall <-> 0 <-> ( Wall, 17, 9, 1, 0 )
FFD 2D (control point) <-> Wall <-> 0 <-> ( Wall, 18, 9, 1, 0 )
FFD 2D (control point) <-> Wall <-> 0 <-> ( Wall, 19, 9, 1, 0 )
FFD 2D (control point) <-> Wall <-> 0 <-> ( Wall, 20, 9, 1, 0 )
FFD 2D (control point) <-> Wall <-> 0 <-> ( Wall, 0, 10, 1, 0 )
FFD 2D (control point) <-> Wall <-> 0 <-> ( Wall, 1, 10, 1, 0 )
FFD 2D (control point) <-> Wall <-> 0 <-> ( Wall, 2, 10, 1, 0 )
FFD 2D (control point) <-> Wall <-> 0 <-> ( Wall, 3, 10, 1, 0 )
FFD 2D (control point) <-> Wall <-> 0 <-> ( Wall, 4, 10, 1, 0 )
FFD 2D (control point) <-> Wall <-> 0 <-> ( Wall, 5, 10, 1, 0 )
FFD 2D (control point) <-> Wall <-> 0 <-> ( Wall, 6, 10, 1, 0 )
FFD 2D (control point) <-> Wall <-> 0 <-> ( Wall, 7, 10, 1, 0 )
FFD 2D (control point) <-> Wall <-> 0 <-> ( Wall, 8, 10, 1, 0 )
FFD 2D (control point) <-> Wall <-> 0 <-> ( Wall, 9, 10, 1, 0 )
FFD 2D (control point) <-> Wall <-> 0 <-> ( Wall, 10, 10, 1, 0 )
FFD 2D (control point) <-> Wall <-> 0 <-> ( Wall, 11, 10, 1, 0 )
FFD 2D (control point) <-> Wall <-> 0 <-> ( Wall, 12, 10, 1, 0 )
FFD 2D (control point) <-> Wall <-> 0 <-> ( Wall, 13, 10, 1, 0 )
FFD 2D (control point) <-> Wall <-> 0 <-> ( Wall, 14, 10, 1, 0 )
FFD 2D (control point) <-> Wall <-> 0 <-> ( Wall, 15, 10, 1, 0 )
FFD 2D (control point) <-> Wall <-> 0 <-> ( Wall, 16, 10, 1, 0 )
FFD 2D (control point) <-> Wall <-> 0 <-> ( Wall, 17, 10, 1, 0 )
FFD 2D (control point) <-> Wall <-> 0 <-> ( Wall, 18, 10, 1, 0 )
FFD 2D (control point) <-> Wall <-> 0 <-> ( Wall, 19, 10, 1, 0 )
FFD 2D (control point) <-> Wall <-> 0 <-> ( Wall, 20, 10, 1, 0 )
FFD 2D (control point) <-> Wall <-> 0 <-> ( Wall, 0, 0, 0, 1 )
FFD 2D (control point) <-> Wall <-> 0 <-> ( Wall, 1, 0, 0, 1 )
FFD 2D (control point) <-> Wall <-> 0 <-> ( Wall, 2, 0, 0, 1 )
FFD 2D (control point) <-> Wall <-> 0 <-> ( Wall, 3, 0, 0, 1 )
FFD 2D (control point) <-> Wall <-> 0 <-> ( Wall, 4, 0, 0, 1 )
FFD 2D (control point) <-> Wall <-> 0 <-> ( Wall, 5, 0, 0, 1 )
FFD 2D (control point) <-> Wall <-> 0 <-> ( Wall, 6, 0, 0, 1 )
FFD 2D (control point) <-> Wall <-> 0 <-> ( Wall, 7, 0, 0, 1 )
FFD 2D (control point) <-> Wall <-> 0 <-> ( Wall, 8, 0, 0, 1 )
FFD 2D (control point) <-> Wall <-> 0 <-> ( Wall, 9, 0, 0, 1 )
FFD 2D (control point) <-> Wall <-> 0 <-> ( Wall, 10, 0, 0, 1 )
FFD 2D (control point) <-> Wall <-> 0 <-> ( Wall, 11, 0, 0, 1 )
FFD 2D (control point) <-> Wall <-> 0 <-> ( Wall, 12, 0, 0, 1 )
FFD 2D (control point) <-> Wall <-> 0 <-> ( Wall, 13, 0, 0, 1 )
FFD 2D (control point) <-> Wall <-> 0 <-> ( Wall, 14, 0, 0, 1 )
FFD 2D (control point) <-> Wall <-> 0 <-> ( Wall, 15, 0, 0, 1 )
FFD 2D (control point) <-> Wall <-> 0 <-> ( Wall, 16, 0, 0, 1 )
FFD 2D (control point) <-> Wall <-> 0 <-> ( Wall, 17, 0, 0, 1 )
FFD 2D (control point) <-> Wall <-> 0 <-> ( Wall, 18, 0, 0, 1 )
FFD 2D (control point) <-> Wall <-> 0 <-> ( Wall, 19, 0, 0, 1 )
FFD 2D (control point) <-> Wall <-> 0 <-> ( Wall, 20, 0, 0, 1 )
FFD 2D (control point) <-> Wall <-> 0 <-> ( Wall, 0, 1, 0, 1 )
FFD 2D (control point) <-> Wall <-> 0 <-> ( Wall, 1, 1, 0, 1 )
FFD 2D (control point) <-> Wall <-> 0 <-> ( Wall, 2, 1, 0, 1 )
FFD 2D (control point) <-> Wall <-> 0 <-> ( Wall, 3, 1, 0, 1 )
FFD 2D (control point) <-> Wall <-> 0 <-> ( Wall, 4, 1, 0, 1 )
FFD 2D (control point) <-> Wall <-> 0 <-> ( Wall, 5, 1, 0, 1 )
FFD 2D (control point) <-> Wall <-> 0 <-> ( Wall, 6, 1, 0, 1 )
FFD 2D (control point) <-> Wall <-> 0 <-> ( Wall, 7, 1, 0, 1 )
FFD 2D (control point) <-> Wall <-> 0 <-> ( Wall, 8, 1, 0, 1 )
FFD 2D (control point) <-> Wall <-> 0 <-> ( Wall, 9, 1, 0, 1 )
FFD 2D (control point) <-> Wall <-> 0 <-> ( Wall, 10, 1, 0, 1 )
FFD 2D (control point) <-> Wall <-> 0 <-> ( Wall, 11, 1, 0, 1 )
FFD 2D (control point) <-> Wall <-> 0 <-> ( Wall, 12, 1, 0, 1 )
FFD 2D (control point) <-> Wall <-> 0 <-> ( Wall, 13, 1, 0, 1 )
FFD 2D (control point) <-> Wall <-> 0 <-> ( Wall, 14, 1, 0, 1 )
FFD 2D (control point) <-> Wall <-> 0 <-> ( Wall, 15, 1, 0, 1 )
FFD 2D (control point) <-> Wall <-> 0 <-> ( Wall, 16, 1, 0, 1 )
FFD 2D (control point) <-> Wall <-> 0 <-> ( Wall, 17, 1, 0, 1 )
FFD 2D (control point) <-> Wall <-> 0 <-> ( Wall, 18, 1, 0, 1 )
FFD 2D (control point) <-> Wall <-> 0 <-> ( Wall, 19, 1, 0, 1 )
FFD 2D (control point) <-> Wall <-> 0 <-> ( Wall, 20, 1, 0, 1 )
FFD 2D (control point) <-> Wall <-> 0 <-> ( Wall, 0, 2, 0, 1 )
FFD 2D (control point) <-> Wall <-> 0 <-> ( Wall, 1, 2, 0, 1 )
FFD 2D (control point) <-> Wall <-> 0 <-> ( Wall, 2, 2, 0, 1 )
FFD 2D (control point) <-> Wall <-> 0 <-> ( Wall, 3, 2, 0, 1 )
FFD 2D (control point) <-> Wall <-> 0 <-> ( Wall, 4, 2, 0, 1 )
FFD 2D (control point) <-> Wall <-> 0 <-> ( Wall, 5, 2, 0, 1 )
FFD 2D (control point) <-> Wall <-> 0 <-> ( Wall, 6, 2, 0, 1 )
FFD 2D (control point) <-> Wall <-> 0 <-> ( Wall, 7, 2, 0, 1 )
FFD 2D (control point) <-> Wall <-> 0 <-> ( Wall, 8, 2, 0, 1 )
FFD 2D (control point) <-> Wall <-> 0 <-> ( Wall, 9, 2, 0, 1 )
FFD 2D (control point) <-> Wall <-> 0 <-> ( Wall, 10, 2, 0, 1 )
FFD 2D (control point) <-> Wall <-> 0 <-> ( Wall, 11, 2, 0, 1 )
FFD 2D (control point) <-> Wall <-> 0 <-> ( Wall, 12, 2, 0, 1 )
FFD 2D (control point) <-> Wall <-> 0 <-> ( Wall, 13, 2, 0, 1 )
FFD 2D (control point) <-> Wall <-> 0 <-> ( Wall, 14, 2, 0, 1 )
FFD 2D (control point) <-> Wall <-> 0 <-> ( Wall, 15, 2, 0, 1 )
FFD 2D (control point) <-> Wall <-> 0 <-> ( Wall, 16, 2, 0, 1 )
FFD 2D (control point) <-> Wall <-> 0 <-> ( Wall, 17, 2, 0, 1 )
FFD 2D (control point) <-> Wall <-> 0 <-> ( Wall, 18, 2, 0, 1 )
FFD 2D (control point) <-> Wall <-> 0 <-> ( Wall, 19, 2, 0, 1 )
FFD 2D (control point) <-> Wall <-> 0 <-> ( Wall, 20, 2, 0, 1 )
FFD 2D (control point) <-> Wall <-> 0 <-> ( Wall, 0, 3, 0, 1 )
FFD 2D (control point) <-> Wall <-> 0 <-> ( Wall, 1, 3, 0, 1 )
FFD 2D (control point) <-> Wall <-> 0 <-> ( Wall, 2, 3, 0, 1 )
FFD 2D (control point) <-> Wall <-> 0 <-> ( Wall, 3, 3, 0, 1 )
FFD 2D (control point) <-> Wall <-> 0 <-> ( Wall, 4, 3, 0, 1 )
FFD 2D (control point) <-> Wall <-> 0 <-> ( Wall, 5, 3, 0, 1 )
FFD 2D (control point) <-> Wall <-> 0 <-> ( Wall, 6, 3, 0, 1 )
FFD 2D (control point) <-> Wall <-> 0 <-> ( Wall, 7, 3, 0, 1 )
FFD 2D (control point) <-> Wall <-> 0 <-> ( Wall, 8, 3, 0, 1 )
FFD 2D (control point) <-> Wall <-> 0 <-> ( Wall, 9, 3, 0, 1 )
FFD 2D (control point) <-> Wall <-> 0 <-> ( Wall, 10, 3, 0, 1 )
FFD 2D (control point) <-> Wall <-> 0 <-> ( Wall, 11, 3, 0, 1 )
FFD 2D (control point) <-> Wall <-> 0 <-> ( Wall, 12, 3, 0, 1 )
FFD 2D (control point) <-> Wall <-> 0 <-> ( Wall, 13, 3, 0, 1 )
FFD 2D (control point) <-> Wall <-> 0 <-> ( Wall, 14, 3, 0, 1 )
FFD 2D (control point) <-> Wall <-> 0 <-> ( Wall, 15, 3, 0, 1 )
FFD 2D (control point) <-> Wall <-> 0 <-> ( Wall, 16, 3, 0, 1 )
FFD 2D (control point) <-> Wall <-> 0 <-> ( Wall, 17, 3, 0, 1 )
FFD 2D (control point) <-> Wall <-> 0 <-> ( Wall, 18, 3, 0, 1 )
FFD 2D (control point) <-> Wall <-> 0 <-> ( Wall, 19, 3, 0, 1 )
FFD 2D (control point) <-> Wall <-> 0 <-> ( Wall, 20, 3, 0, 1 )
FFD 2D (control point) <-> Wall <-> 0 <-> ( Wall, 0, 4, 0, 1 )
FFD 2D (control point) <-> Wall <-> 0 <-> ( Wall, 1, 4, 0, 1 )
FFD 2D (control point) <-> Wall <-> 0 <-> ( Wall, 2, 4, 0, 1 )
FFD 2D (control point) <-> Wall <-> 0 <-> ( Wall, 3, 4, 0, 1 )
FFD 2D (control point) <-> Wall <-> 0 <-> ( Wall, 4, 4, 0, 1 )
FFD 2D (control point) <-> Wall <-> 0 <-> ( Wall, 5, 4, 0, 1 )
FFD 2D (control point) <-> Wall <-> 0 <-> ( Wall, 6, 4, 0, 1 )
FFD 2D (control point) <-> Wall <-> 0 <-> ( Wall, 7, 4, 0, 1 )
FFD 2D (control point) <-> Wall <-> 0 <-> ( Wall, 8, 4, 0, 1 )
FFD 2D (control point) <-> Wall <-> 0 <-> ( Wall, 9, 4, 0, 1 )
FFD 2D (control point) <-> Wall <-> 0 <-> ( Wall, 10, 4, 0, 1 )
FFD 2D (control point) <-> Wall <-> 0 <-> ( Wall, 11, 4, 0, 1 )
FFD 2D (control point) <-> Wall <-> 0 <-> ( Wall, 12, 4, 0, 1 )
FFD 2D (control point) <-> Wall <-> 0 <-> ( Wall, 13, 4, 0, 1 )
FFD 2D (control point) <-> Wall <-> 0 <-> ( Wall, 14, 4, 0, 1 )
FFD 2D (control point) <-> Wall <-> 0 <-> ( Wall, 15, 4, 0, 1 )
FFD 2D (control point) <-> Wall <-> 0 <-> ( Wall, 16, 4, 0, 1 )
FFD 2D (control point) <-> Wall <-> 0 <-> ( Wall, 17, 4, 0, 1 )
FFD 2D (control point) <-> Wall <-> 0 <-> ( Wall, 18, 4, 0, 1 )
FFD 2D (control point) <-> Wall <-> 0 <-> ( Wall, 19, 4, 0, 1 )
FFD 2D (control point) <-> Wall <-> 0 <-> ( Wall, 20, 4, 0, 1 )
FFD 2D (control point) <-> Wall <-> 0 <-> ( Wall, 0, 5, 0, 1 )
FFD 2D (control point) <-> Wall <-> 0 <-> ( Wall, 1, 5, 0, 1 )
FFD 2D (control point) <-> Wall <-> 0 <-> ( Wall, 2, 5, 0, 1 )
FFD 2D (control point) <-> Wall <-> 0 <-> ( Wall, 3, 5, 0, 1 )
FFD 2D (control point) <-> Wall <-> 0 <-> ( Wall, 4, 5, 0, 1 )
FFD 2D (control point) <-> Wall <-> 0 <-> ( Wall, 5, 5, 0, 1 )
FFD 2D (control point) <-> Wall <-> 0 <-> ( Wall, 6, 5, 0, 1 )
FFD 2D (control point) <-> Wall <-> 0 <-> ( Wall, 7, 5, 0, 1 )
FFD 2D (control point) <-> Wall <-> 0 <-> ( Wall, 8, 5, 0, 1 )
FFD 2D (control point) <-> Wall <-> 0 <-> ( Wall, 9, 5, 0, 1 )
FFD 2D (control point) <-> Wall <-> 0 <-> ( Wall, 10, 5, 0, 1 )
FFD 2D (control point) <-> Wall <-> 0 <-> ( Wall, 11, 5, 0, 1 )
FFD 2D (control point) <-> Wall <-> 0 <-> ( Wall, 12, 5, 0, 1 )
FFD 2D (control point) <-> Wall <-> 0 <-> ( Wall, 13, 5, 0, 1 )
FFD 2D (control point) <-> Wall <-> 0 <-> ( Wall, 14, 5, 0, 1 )
FFD 2D (control point) <-> Wall <-> 0 <-> ( Wall, 15, 5, 0, 1 )
FFD 2D (control point) <-> Wall <-> 0 <-> ( Wall, 16, 5, 0, 1 )
FFD 2D (control point) <-> Wall <-> 0 <-> ( Wall, 17, 5, 0, 1 )
FFD 2D (control point) <-> Wall <-> 0 <-> ( Wall, 18, 5, 0, 1 )
FFD 2D (control point) <-> Wall <-> 0 <-> ( Wall, 19, 5, 0, 1 )
FFD 2D (control point) <-> Wall <-> 0 <-> ( Wall, 20, 5, 0, 1 )
FFD 2D (control point) <-> Wall <-> 0 <-> ( Wall, 0, 6, 0, 1 )
FFD 2D (control point) <-> Wall <-> 0 <-> ( Wall, 1, 6, 0, 1 )
FFD 2D (control point) <-> Wall <-> 0 <-> ( Wall, 2, 6, 0, 1 )
FFD 2D (control point) <-> Wall <-> 0 <-> ( Wall, 3, 6, 0, 1 )
FFD 2D (control point) <-> Wall <-> 0 <-> ( Wall, 4, 6, 0, 1 )
FFD 2D (control point) <-> Wall <-> 0 <-> ( Wall, 5, 6, 0, 1 )
FFD 2D (control point) <-> Wall <-> 0 <-> ( Wall, 6, 6, 0, 1 )
FFD 2D (control point) <-> Wall <-> 0 <-> ( Wall, 7, 6, 0, 1 )
FFD 2D (control point) <-> Wall <-> 0 <-> ( Wall, 8, 6, 0, 1 )
FFD 2D (control point) <-> Wall <-> 0 <-> ( Wall, 9, 6, 0, 1 )
FFD 2D (control point) <-> Wall <-> 0 <-> ( Wall, 10, 6, 0, 1 )
FFD 2D (control point) <-> Wall <-> 0 <-> ( Wall, 11, 6, 0, 1 )
FFD 2D (control point) <-> Wall <-> 0 <-> ( Wall, 12, 6, 0, 1 )
FFD 2D (control point) <-> Wall <-> 0 <-> ( Wall, 13, 6, 0, 1 )
FFD 2D (control point) <-> Wall <-> 0 <-> ( Wall, 14, 6, 0, 1 )
FFD 2D (control point) <-> Wall <-> 0 <-> ( Wall, 15, 6, 0, 1 )
FFD 2D (control point) <-> Wall <-> 0 <-> ( Wall, 16, 6, 0, 1 )
FFD 2D (control point) <-> Wall <-> 0 <-> ( Wall, 17, 6, 0, 1 )
FFD 2D (control point) <-> Wall <-> 0 <-> ( Wall, 18, 6, 0, 1 )
FFD 2D (control point) <-> Wall <-> 0 <-> ( Wall, 19, 6, 0, 1 )
FFD 2D (control point) <-> Wall <-> 0 <-> ( Wall, 20, 6, 0, 1 )
FFD 2D (control point) <-> Wall <-> 0 <-> ( Wall, 0, 7, 0, 1 )
FFD 2D (control point) <-> Wall <-> 0 <-> ( Wall, 1, 7, 0, 1 )
FFD 2D (control point) <-> Wall <-> 0 <-> ( Wall, 2, 7, 0, 1 )
FFD 2D (control point) <-> Wall <-> 0 <-> ( Wall, 3, 7, 0, 1 )
FFD 2D (control point) <-> Wall <-> 0 <-> ( Wall, 4, 7, 0, 1 )
FFD 2D (control point) <-> Wall <-> 0 <-> ( Wall, 5, 7, 0, 1 )
FFD 2D (control point) <-> Wall <-> 0 <-> ( Wall, 6, 7, 0, 1 )
FFD 2D (control point) <-> Wall <-> 0 <-> ( Wall, 7, 7, 0, 1 )
FFD 2D (control point) <-> Wall <-> 0 <-> ( Wall, 8, 7, 0, 1 )
FFD 2D (control point) <-> Wall <-> 0 <-> ( Wall, 9, 7, 0, 1 )
FFD 2D (control point) <-> Wall <-> 0 <-> ( Wall, 10, 7, 0, 1 )
FFD 2D (control point) <-> Wall <-> 0 <-> ( Wall, 11, 7, 0, 1 )
FFD 2D (control point) <-> Wall <-> 0 <-> ( Wall, 12, 7, 0, 1 )
FFD 2D (control point) <-> Wall <-> 0 <-> ( Wall, 13, 7, 0, 1 )
FFD 2D (control point) <-> Wall <-> 0 <-> ( Wall, 14, 7, 0, 1 )
FFD 2D (control point) <-> Wall <-> 0 <-> ( Wall, 15, 7, 0, 1 )
FFD 2D (control point) <-> Wall <-> 0 <-> ( Wall, 16, 7, 0, 1 )
FFD 2D (control point) <-> Wall <-> 0 <-> ( Wall, 17, 7, 0, 1 )
FFD 2D (control point) <-> Wall <-> 0 <-> ( Wall, 18, 7, 0, 1 )
FFD 2D (control point) <-> Wall <-> 0 <-> ( Wall, 19, 7, 0, 1 )
FFD 2D (control point) <-> Wall <-> 0 <-> ( Wall, 20, 7, 0, 1 )
FFD 2D (control point) <-> Wall <-> 0 <-> ( Wall, 0, 8, 0, 1 )
FFD 2D (control point) <-> Wall <-> 0 <-> ( Wall, 1, 8, 0, 1 )
FFD 2D (control point) <-> Wall <-> 0 <-> ( Wall, 2, 8, 0, 1 )
FFD 2D (control point) <-> Wall <-> 0 <-> ( Wall, 3, 8, 0, 1 )
FFD 2D (control point) <-> Wall <-> 0 <-> ( Wall, 4, 8, 0, 1 )
FFD 2D (control point) <-> Wall <-> 0 <-> ( Wall, 5, 8, 0, 1 )
FFD 2D (control point) <-> Wall <-> 0 <-> ( Wall, 6, 8, 0, 1 )
FFD 2D (control point) <-> Wall <-> 0 <-> ( Wall, 7, 8, 0, 1 )
FFD 2D (control point) <-> Wall <-> 0 <-> ( Wall, 8, 8, 0, 1 )
FFD 2D (control point) <-> Wall <-> 0 <-> ( Wall, 9, 8, 0, 1 )
FFD 2D (control point) <-> Wall <-> 0 <-> ( Wall, 10, 8, 0, 1 )
FFD 2D (control point) <-> Wall <-> 0 <-> ( Wall, 11, 8, 0, 1 )
FFD 2D (control point) <-> Wall <-> 0 <-> ( Wall, 12, 8, 0, 1 )
FFD 2D (control point) <-> Wall <-> 0 <-> ( Wall, 13, 8, 0, 1 )
FFD 2D (control point) <-> Wall <-> 0 <-> ( Wall, 14, 8, 0, 1 )
FFD 2D (control point) <-> Wall <-> 0 <-> ( Wall, 15, 8, 0, 1 )
FFD 2D (control point) <-> Wall <-> 0 <-> ( Wall, 16, 8, 0, 1 )
FFD 2D (control point) <-> Wall <-> 0 <-> ( Wall, 17, 8, 0, 1 )
FFD 2D (control point) <-> Wall <-> 0 <-> ( Wall, 18, 8, 0, 1 )
FFD 2D (control point) <-> Wall <-> 0 <-> ( Wall, 19, 8, 0, 1 )
FFD 2D (control point) <-> Wall <-> 0 <-> ( Wall, 20, 8, 0, 1 )
FFD 2D (control point) <-> Wall <-> 0 <-> ( Wall, 0, 9, 0, 1 )
FFD 2D (control point) <-> Wall <-> 0 <-> ( Wall, 1, 9, 0, 1 )
FFD 2D (control point) <-> Wall <-> 0 <-> ( Wall, 2, 9, 0, 1 )
FFD 2D (control point) <-> Wall <-> 0 <-> ( Wall, 3, 9, 0, 1 )
FFD 2D (control point) <-> Wall <-> 0 <-> ( Wall, 4, 9, 0, 1 )
FFD 2D (control point) <-> Wall <-> 0 <-> ( Wall, 5, 9, 0, 1 )
FFD 2D (control point) <-> Wall <-> 0 <-> ( Wall, 6, 9, 0, 1 )
FFD 2D (control point) <-> Wall <-> 0 <-> ( Wall, 7, 9, 0, 1 )
FFD 2D (control point) <-> Wall <-> 0 <-> ( Wall, 8, 9, 0, 1 )
FFD 2D (control point) <-> Wall <-> 0 <-> ( Wall, 9, 9, 0, 1 )
FFD 2D (control point) <-> Wall <-> 0 <-> ( Wall, 10, 9, 0, 1 )
FFD 2D (control point) <-> Wall <-> 0 <-> ( Wall, 11, 9, 0, 1 )
FFD 2D (control point) <-> Wall <-> 0 <-> ( Wall, 12, 9, 0, 1 )
FFD 2D (control point) <-> Wall <-> 0 <-> ( Wall, 13, 9, 0, 1 )
FFD 2D (control point) <-> Wall <-> 0 <-> ( Wall, 14, 9, 0, 1 )
FFD 2D (control point) <-> Wall <-> 0 <-> ( Wall, 15, 9, 0, 1 )
FFD 2D (control point) <-> Wall <-> 0 <-> ( Wall, 16, 9, 0, 1 )
FFD 2D (control point) <-> Wall <-> 0 <-> ( Wall, 17, 9, 0, 1 )
FFD 2D (control point) <-> Wall <-> 0 <-> ( Wall, 18, 9, 0, 1 )
FFD 2D (control point) <-> Wall <-> 0 <-> ( Wall, 19, 9, 0, 1 )
FFD 2D (control point) <-> Wall <-> 0 <-> ( Wall, 20, 9, 0, 1 )
FFD 2D (control point) <-> Wall <-> 0 <-> ( Wall, 0, 10, 0, 1 )
FFD 2D (control point) <-> Wall <-> 0 <-> ( Wall, 1, 10, 0, 1 )
FFD 2D (control point) <-> Wall <-> 0 <-> ( Wall, 2, 10, 0, 1 )
FFD 2D (control point) <-> Wall <-> 0 <-> ( Wall, 3, 10, 0, 1 )
FFD 2D (control point) <-> Wall <-> 0 <-> ( Wall, 4, 10, 0, 1 )
FFD 2D (control point) <-> Wall <-> 0 <-> ( Wall, 5, 10, 0, 1 )
FFD 2D (control point) <-> Wall <-> 0 <-> ( Wall, 6, 10, 0, 1 )
FFD 2D (control point) <-> Wall <-> 0 <-> ( Wall, 7, 10, 0, 1 )
FFD 2D (control point) <-> Wall <-> 0 <-> ( Wall, 8, 10, 0, 1 )
FFD 2D (control point) <-> Wall <-> 0 <-> ( Wall, 9, 10, 0, 1 )
FFD 2D (control point) <-> Wall <-> 0 <-> ( Wall, 10, 10, 0, 1 )
FFD 2D (control point) <-> Wall <-> 0 <-> ( Wall, 11, 10, 0, 1 )
FFD 2D (control point) <-> Wall <-> 0 <-> ( Wall, 12, 10, 0, 1 )
FFD 2D (control point) <-> Wall <-> 0 <-> ( Wall, 13, 10, 0, 1 )
FFD 2D (control point) <-> Wall <-> 0 <-> ( Wall, 14, 10, 0, 1 )
FFD 2D (control point) <-> Wall <-> 0 <-> ( Wall, 15, 10, 0, 1 )
FFD 2D (control point) <-> Wall <-> 0 <-> ( Wall, 16, 10, 0, 1 )
FFD 2D (control point) <-> Wall <-> 0 <-> ( Wall, 17, 10, 0, 1 )
FFD 2D (control point) <-> Wall <-> 0 <-> ( Wall, 18, 10, 0, 1 )
FFD 2D (control point) <-> Wall <-> 0 <-> ( Wall, 19, 10, 0, 1 )
FFD 2D (control point) <-> Wall <-> 0 <-> ( Wall, 20, 10, 0, 1 )

---------------- Design problem definition  ( Zone 0 ) ------------------
CL objective function.

-------------------- Output Information ( Zone 0 ) ----------------------
Output Volume Sensitivity file name: volume_sens. 
Output Surface Sensitivity file name: surface_sens. 
Output gradient file name: of_grad.dat. 

------------- Config File Boundary Information ( Zone 0 ) ---------------
+-----------------------------------------------------------------------+
|                        Marker Type|                        Marker Name|
+-----------------------------------------------------------------------+
|                         Euler wall|                               Wall|
+-----------------------------------------------------------------------+
|                          Far-field|                                Far|
+-----------------------------------------------------------------------+
|          Supersonic inlet boundary|                              Inlet|
+-----------------------------------------------------------------------+
|         Supersonic outlet boundary|                             Outlet|
+-----------------------------------------------------------------------+
Two dimensional problem.
20301 grid points before partitioning.
20000 volume elements before partitioning.
4 surface markers.
140 boundary elements in index 0 (Marker = Inlet).
100 boundary elements in index 1 (Marker = Outlet).
200 boundary elements in index 2 (Marker = Far).
160 boundary elements in index 3 (Marker = Wall).
Executing the partitioning functions.
Building the graph adjacency structure.
Calling ParMETIS... graph partitioning complete (900 edge cuts).
Distributing ParMETIS coloring.
Rebalancing vertices.
Rebalancing volume element connectivity.
Rebalancing markers and surface elements.
22120 vertices including ghost points. 
20899 interior elements including halo cells. 
20899 quadrilaterals.
Establishing MPI communication patterns.
Identify vertices.
Storing a mapping from global to local point index.

----------------------- Preprocessing computations ----------------------
Setting local point connectivity.
Checking the numerical grid orientation of the elements.
All volume elements are correctly orientend.
There has been a re-orientation of 102 LINE surface elements.
Identify edges and vertices.
Setting the bound control volume structure.
Storing a mapping from global to local point index.
Reading volume sensitivities at each node from file.
Reading in sensitivity at iteration 0.

---------------------- Mesh sensitivity computation ---------------------

------------------------ Mesh sensitivity Output ------------------------
Volume output fields: COORDINATES, SOLUTION
  Info: Ignoring the following screen output fields:
  RMS_RES[0], RMS_RES[1], RMS_RES[2], RMS_RES[3], RMS_RES[4], AVG_CFL[0], DRAG[0], LIFT[0]
Screen output fields: OUTER_ITER
  Info: Ignoring the following history output groups:
  RMS_RES[0], RMS_RES[1], RMS_RES[2], RMS_RES[3], RMS_RES[4], AVG_CFL[0], DRAG[0], LIFT[0]
History output group(s): OUTER_ITER
Ignoring Convergence Field(s): RMS_ADJ_DENSITY[0] 
Warning: No (valid) fields chosen for convergence monitoring. Convergence monitoring inactive.
Warning: No (valid) fields chosen for time convergence monitoring. Time convergence monitoring inactive.
|Paraview                           |volume_sens_0.vtu                  |
|                                   |                     (170.377 MB/s)|
|Paraview surface                   |surface_sens_0.vtu                 |
|                                   |                     (4.70323 MB/s)|

---------- Start gradient evaluation using sensitivity information ----------

Evaluate functional gradient using Algorithmic Differentiation (ZONE 0).
1 Free Form Deformation boxes.
1 Free Form Deformation nested levels.
FFD box tag: Wall. FFD box level: 0. Degrees: 20, 10.
FFD Blending using Bezier Curves.
Number of parent boxes: 0. Number of child boxes: 0.
Corner points: 4. Control points: 462. Surface points: 87.

----------------- FFD technique (parametric -> cartesian) ---------------
Checking FFD box dimension.
Checking FFD box intersections with the solid surfaces.
The FFD planes i=0, i=20, j=0, intersect solid surfaces.
SU2 is fixing the planes to maintain a continuous 2nd order derivative.
Update cartesian coord        | FFD box: Wall. Max Diff: 4.12312e-10.

Design variable (FFD_CONTROL_POINT_2D) number 0.
LIFT gradient : 0
-------------------------------------------------------------------------

Design variable (FFD_CONTROL_POINT_2D) number 1.
LIFT gradient : 0
-------------------------------------------------------------------------

Design variable (FFD_CONTROL_POINT_2D) number 2.
LIFT gradient : 0
-------------------------------------------------------------------------

Design variable (FFD_CONTROL_POINT_2D) number 3.
LIFT gradient : 0
-------------------------------------------------------------------------

Design variable (FFD_CONTROL_POINT_2D) number 4.
LIFT gradient : 0
-------------------------------------------------------------------------

Design variable (FFD_CONTROL_POINT_2D) number 5.
LIFT gradient : 0
-------------------------------------------------------------------------

Design variable (FFD_CONTROL_POINT_2D) number 6.
LIFT gradient : 0
-------------------------------------------------------------------------

Design variable (FFD_CONTROL_POINT_2D) number 7.
LIFT gradient : 0
-------------------------------------------------------------------------

Design variable (FFD_CONTROL_POINT_2D) number 8.
LIFT gradient : 0
-------------------------------------------------------------------------

Design variable (FFD_CONTROL_POINT_2D) number 9.
LIFT gradient : 0
-------------------------------------------------------------------------

Design variable (FFD_CONTROL_POINT_2D) number 10.
LIFT gradient : 0
-------------------------------------------------------------------------

Design variable (FFD_CONTROL_POINT_2D) number 11.
LIFT gradient : 0
-------------------------------------------------------------------------

Design variable (FFD_CONTROL_POINT_2D) number 12.
LIFT gradient : 0
-------------------------------------------------------------------------

Design variable (FFD_CONTROL_POINT_2D) number 13.
LIFT gradient : 0
-------------------------------------------------------------------------

Design variable (FFD_CONTROL_POINT_2D) number 14.
LIFT gradient : 0
-------------------------------------------------------------------------

Design variable (FFD_CONTROL_POINT_2D) number 15.
LIFT gradient : 0
-------------------------------------------------------------------------

Design variable (FFD_CONTROL_POINT_2D) number 16.
LIFT gradient : 0
-------------------------------------------------------------------------

Design variable (FFD_CONTROL_POINT_2D) number 17.
LIFT gradient : 0
-------------------------------------------------------------------------

Design variable (FFD_CONTROL_POINT_2D) number 18.
LIFT gradient : 0
-------------------------------------------------------------------------

Design variable (FFD_CONTROL_POINT_2D) number 19.
LIFT gradient : 0
-------------------------------------------------------------------------

Design variable (FFD_CONTROL_POINT_2D) number 20.
LIFT gradient : 0
-------------------------------------------------------------------------

Design variable (FFD_CONTROL_POINT_2D) number 21.
LIFT gradient : 0
-------------------------------------------------------------------------

Design variable (FFD_CONTROL_POINT_2D) number 22.
LIFT gradient : 0
-------------------------------------------------------------------------

Design variable (FFD_CONTROL_POINT_2D) number 23.
LIFT gradient : 0
-------------------------------------------------------------------------

Design variable (FFD_CONTROL_POINT_2D) number 24.
LIFT gradient : 0
-------------------------------------------------------------------------

Design variable (FFD_CONTROL_POINT_2D) number 25.
LIFT gradient : 0
-------------------------------------------------------------------------

Design variable (FFD_CONTROL_POINT_2D) number 26.
LIFT gradient : 0
-------------------------------------------------------------------------

Design variable (FFD_CONTROL_POINT_2D) number 27.
LIFT gradient : 0
-------------------------------------------------------------------------

Design variable (FFD_CONTROL_POINT_2D) number 28.
LIFT gradient : 0
-------------------------------------------------------------------------

Design variable (FFD_CONTROL_POINT_2D) number 29.
LIFT gradient : 0
-------------------------------------------------------------------------

Design variable (FFD_CONTROL_POINT_2D) number 30.
LIFT gradient : 0
-------------------------------------------------------------------------

Design variable (FFD_CONTROL_POINT_2D) number 31.
LIFT gradient : 0
-------------------------------------------------------------------------

Design variable (FFD_CONTROL_POINT_2D) number 32.
LIFT gradient : 0
-------------------------------------------------------------------------

Design variable (FFD_CONTROL_POINT_2D) number 33.
LIFT gradient : 0
-------------------------------------------------------------------------

Design variable (FFD_CONTROL_POINT_2D) number 34.
LIFT gradient : 0
-------------------------------------------------------------------------

Design variable (FFD_CONTROL_POINT_2D) number 35.
LIFT gradient : 0
-------------------------------------------------------------------------

Design variable (FFD_CONTROL_POINT_2D) number 36.
LIFT gradient : 0
-------------------------------------------------------------------------

Design variable (FFD_CONTROL_POINT_2D) number 37.
LIFT gradient : 0
-------------------------------------------------------------------------

Design variable (FFD_CONTROL_POINT_2D) number 38.
LIFT gradient : 0
-------------------------------------------------------------------------

Design variable (FFD_CONTROL_POINT_2D) number 39.
LIFT gradient : 0
-------------------------------------------------------------------------

Design variable (FFD_CONTROL_POINT_2D) number 40.
LIFT gradient : 0
-------------------------------------------------------------------------

Design variable (FFD_CONTROL_POINT_2D) number 41.
LIFT gradient : 0
-------------------------------------------------------------------------

Design variable (FFD_CONTROL_POINT_2D) number 42.
LIFT gradient : 0
-------------------------------------------------------------------------

Design variable (FFD_CONTROL_POINT_2D) number 43.
LIFT gradient : 0
-------------------------------------------------------------------------

Design variable (FFD_CONTROL_POINT_2D) number 44.
LIFT gradient : 0
-------------------------------------------------------------------------

Design variable (FFD_CONTROL_POINT_2D) number 45.
LIFT gradient : 0
-------------------------------------------------------------------------

Design variable (FFD_CONTROL_POINT_2D) number 46.
LIFT gradient : 0
-------------------------------------------------------------------------

Design variable (FFD_CONTROL_POINT_2D) number 47.
LIFT gradient : 0
-------------------------------------------------------------------------

Design variable (FFD_CONTROL_POINT_2D) number 48.
LIFT gradient : 0
-------------------------------------------------------------------------

Design variable (FFD_CONTROL_POINT_2D) number 49.
LIFT gradient : 0
-------------------------------------------------------------------------

Design variable (FFD_CONTROL_POINT_2D) number 50.
LIFT gradient : 0
-------------------------------------------------------------------------

Design variable (FFD_CONTROL_POINT_2D) number 51.
LIFT gradient : 0
-------------------------------------------------------------------------

Design variable (FFD_CONTROL_POINT_2D) number 52.
LIFT gradient : 0
-------------------------------------------------------------------------

Design variable (FFD_CONTROL_POINT_2D) number 53.
LIFT gradient : 0
-------------------------------------------------------------------------

Design variable (FFD_CONTROL_POINT_2D) number 54.
LIFT gradient : 0
-------------------------------------------------------------------------

Design variable (FFD_CONTROL_POINT_2D) number 55.
LIFT gradient : 0
-------------------------------------------------------------------------

Design variable (FFD_CONTROL_POINT_2D) number 56.
LIFT gradient : 0
-------------------------------------------------------------------------

Design variable (FFD_CONTROL_POINT_2D) number 57.
LIFT gradient : 0
-------------------------------------------------------------------------

Design variable (FFD_CONTROL_POINT_2D) number 58.
LIFT gradient : 0
-------------------------------------------------------------------------

Design variable (FFD_CONTROL_POINT_2D) number 59.
LIFT gradient : 0
-------------------------------------------------------------------------

Design variable (FFD_CONTROL_POINT_2D) number 60.
LIFT gradient : 0
-------------------------------------------------------------------------

Design variable (FFD_CONTROL_POINT_2D) number 61.
LIFT gradient : 0
-------------------------------------------------------------------------

Design variable (FFD_CONTROL_POINT_2D) number 62.
LIFT gradient : 0
-------------------------------------------------------------------------

Design variable (FFD_CONTROL_POINT_2D) number 63.
LIFT gradient : 0
-------------------------------------------------------------------------

Design variable (FFD_CONTROL_POINT_2D) number 64.
LIFT gradient : 0
-------------------------------------------------------------------------

Design variable (FFD_CONTROL_POINT_2D) number 65.
LIFT gradient : 0
-------------------------------------------------------------------------

Design variable (FFD_CONTROL_POINT_2D) number 66.
LIFT gradient : -0.00525621
-------------------------------------------------------------------------

Design variable (FFD_CONTROL_POINT_2D) number 67.
LIFT gradient : 0.0372295
-------------------------------------------------------------------------

Design variable (FFD_CONTROL_POINT_2D) number 68.
LIFT gradient : 0.0470708
-------------------------------------------------------------------------

Design variable (FFD_CONTROL_POINT_2D) number 69.
LIFT gradient : 0.0329408
-------------------------------------------------------------------------

Design variable (FFD_CONTROL_POINT_2D) number 70.
LIFT gradient : 0.0148938
-------------------------------------------------------------------------

Design variable (FFD_CONTROL_POINT_2D) number 71.
LIFT gradient : 0.00179428
-------------------------------------------------------------------------

Design variable (FFD_CONTROL_POINT_2D) number 72.
LIFT gradient : -0.00683685
-------------------------------------------------------------------------

Design variable (FFD_CONTROL_POINT_2D) number 73.
LIFT gradient : -0.0124155
-------------------------------------------------------------------------

Design variable (FFD_CONTROL_POINT_2D) number 74.
LIFT gradient : -0.013703
-------------------------------------------------------------------------

Design variable (FFD_CONTROL_POINT_2D) number 75.
LIFT gradient : -0.00877147
-------------------------------------------------------------------------

Design variable (FFD_CONTROL_POINT_2D) number 76.
LIFT gradient : 0.00106936
-------------------------------------------------------------------------

Design variable (FFD_CONTROL_POINT_2D) number 77.
LIFT gradient : 0.0101387
-------------------------------------------------------------------------

Design variable (FFD_CONTROL_POINT_2D) number 78.
LIFT gradient : 0.0121441
-------------------------------------------------------------------------

Design variable (FFD_CONTROL_POINT_2D) number 79.
LIFT gradient : 0.00536953
-------------------------------------------------------------------------

Design variable (FFD_CONTROL_POINT_2D) number 80.
LIFT gradient : -0.00573486
-------------------------------------------------------------------------

Design variable (FFD_CONTROL_POINT_2D) number 81.
LIFT gradient : 0
-------------------------------------------------------------------------

Design variable (FFD_CONTROL_POINT_2D) number 82.
LIFT gradient : 0
-------------------------------------------------------------------------

Design variable (FFD_CONTROL_POINT_2D) number 83.
LIFT gradient : 0
-------------------------------------------------------------------------

Design variable (FFD_CONTROL_POINT_2D) number 84.
LIFT gradient : 0
-------------------------------------------------------------------------

Design variable (FFD_CONTROL_POINT_2D) number 85.
LIFT gradient : 0
-------------------------------------------------------------------------

Design variable (FFD_CONTROL_POINT_2D) number 86.
LIFT gradient : 0
-------------------------------------------------------------------------

Design variable (FFD_CONTROL_POINT_2D) number 87.
LIFT gradient : -0.00919836
-------------------------------------------------------------------------

Design variable (FFD_CONTROL_POINT_2D) number 88.
LIFT gradient : 0.0651517
-------------------------------------------------------------------------

Design variable (FFD_CONTROL_POINT_2D) number 89.
LIFT gradient : 0.0823739
-------------------------------------------------------------------------

Design variable (FFD_CONTROL_POINT_2D) number 90.
LIFT gradient : 0.0576465
-------------------------------------------------------------------------

Design variable (FFD_CONTROL_POINT_2D) number 91.
LIFT gradient : 0.0260641
-------------------------------------------------------------------------

Design variable (FFD_CONTROL_POINT_2D) number 92.
LIFT gradient : 0.00313998
-------------------------------------------------------------------------

Design variable (FFD_CONTROL_POINT_2D) number 93.
LIFT gradient : -0.0119645
-------------------------------------------------------------------------

Design variable (FFD_CONTROL_POINT_2D) number 94.
LIFT gradient : -0.0217272
-------------------------------------------------------------------------

Design variable (FFD_CONTROL_POINT_2D) number 95.
LIFT gradient : -0.0239803
-------------------------------------------------------------------------

Design variable (FFD_CONTROL_POINT_2D) number 96.
LIFT gradient : -0.0153501
-------------------------------------------------------------------------

Design variable (FFD_CONTROL_POINT_2D) number 97.
LIFT gradient : 0.00187138
-------------------------------------------------------------------------

Design variable (FFD_CONTROL_POINT_2D) number 98.
LIFT gradient : 0.0177428
-------------------------------------------------------------------------

Design variable (FFD_CONTROL_POINT_2D) number 99.
LIFT gradient : 0.0212521
-------------------------------------------------------------------------

Design variable (FFD_CONTROL_POINT_2D) number 100.
LIFT gradient : 0.00939668
-------------------------------------------------------------------------

Design variable (FFD_CONTROL_POINT_2D) number 101.
LIFT gradient : -0.010036
-------------------------------------------------------------------------

Design variable (FFD_CONTROL_POINT_2D) number 102.
LIFT gradient : 0
-------------------------------------------------------------------------

Design variable (FFD_CONTROL_POINT_2D) number 103.
LIFT gradient : 0
-------------------------------------------------------------------------

Design variable (FFD_CONTROL_POINT_2D) number 104.
LIFT gradient : 0
-------------------------------------------------------------------------

Design variable (FFD_CONTROL_POINT_2D) number 105.
LIFT gradient : 0
-------------------------------------------------------------------------

Design variable (FFD_CONTROL_POINT_2D) number 106.
LIFT gradient : 0
-------------------------------------------------------------------------

Design variable (FFD_CONTROL_POINT_2D) number 107.
LIFT gradient : 0
-------------------------------------------------------------------------

Design variable (FFD_CONTROL_POINT_2D) number 108.
LIFT gradient : -0.011038
-------------------------------------------------------------------------

Design variable (FFD_CONTROL_POINT_2D) number 109.
LIFT gradient : 0.078182
-------------------------------------------------------------------------

Design variable (FFD_CONTROL_POINT_2D) number 110.
LIFT gradient : 0.0988486
-------------------------------------------------------------------------

Design variable (FFD_CONTROL_POINT_2D) number 111.
LIFT gradient : 0.0691757
-------------------------------------------------------------------------

Design variable (FFD_CONTROL_POINT_2D) number 112.
LIFT gradient : 0.0312769
-------------------------------------------------------------------------

Design variable (FFD_CONTROL_POINT_2D) number 113.
LIFT gradient : 0.00376798
-------------------------------------------------------------------------

Design variable (FFD_CONTROL_POINT_2D) number 114.
LIFT gradient : -0.0143574
-------------------------------------------------------------------------

Design variable (FFD_CONTROL_POINT_2D) number 115.
LIFT gradient : -0.0260726
-------------------------------------------------------------------------

Design variable (FFD_CONTROL_POINT_2D) number 116.
LIFT gradient : -0.0287764
-------------------------------------------------------------------------

Design variable (FFD_CONTROL_POINT_2D) number 117.
LIFT gradient : -0.0184201
-------------------------------------------------------------------------

Design variable (FFD_CONTROL_POINT_2D) number 118.
LIFT gradient : 0.00224565
-------------------------------------------------------------------------

Design variable (FFD_CONTROL_POINT_2D) number 119.
LIFT gradient : 0.0212914
-------------------------------------------------------------------------

Design variable (FFD_CONTROL_POINT_2D) number 120.
LIFT gradient : 0.0255025
-------------------------------------------------------------------------

Design variable (FFD_CONTROL_POINT_2D) number 121.
LIFT gradient : 0.011276
-------------------------------------------------------------------------

Design variable (FFD_CONTROL_POINT_2D) number 122.
LIFT gradient : -0.0120432
-------------------------------------------------------------------------

Design variable (FFD_CONTROL_POINT_2D) number 123.
LIFT gradient : 0
-------------------------------------------------------------------------

Design variable (FFD_CONTROL_POINT_2D) number 124.
LIFT gradient : 0
-------------------------------------------------------------------------

Design variable (FFD_CONTROL_POINT_2D) number 125.
LIFT gradient : 0
-------------------------------------------------------------------------

Design variable (FFD_CONTROL_POINT_2D) number 126.
LIFT gradient : 0
-------------------------------------------------------------------------

Design variable (FFD_CONTROL_POINT_2D) number 127.
LIFT gradient : 0
-------------------------------------------------------------------------

Design variable (FFD_CONTROL_POINT_2D) number 128.
LIFT gradient : 0
-------------------------------------------------------------------------

Design variable (FFD_CONTROL_POINT_2D) number 129.
LIFT gradient : -0.00919836
-------------------------------------------------------------------------

Design variable (FFD_CONTROL_POINT_2D) number 130.
LIFT gradient : 0.0651517
-------------------------------------------------------------------------

Design variable (FFD_CONTROL_POINT_2D) number 131.
LIFT gradient : 0.0823739
-------------------------------------------------------------------------

Design variable (FFD_CONTROL_POINT_2D) number 132.
LIFT gradient : 0.0576465
-------------------------------------------------------------------------

Design variable (FFD_CONTROL_POINT_2D) number 133.
LIFT gradient : 0.0260641
-------------------------------------------------------------------------

Design variable (FFD_CONTROL_POINT_2D) number 134.
LIFT gradient : 0.00313998
-------------------------------------------------------------------------

Design variable (FFD_CONTROL_POINT_2D) number 135.
LIFT gradient : -0.0119645
-------------------------------------------------------------------------

Design variable (FFD_CONTROL_POINT_2D) number 136.
LIFT gradient : -0.0217272
-------------------------------------------------------------------------

Design variable (FFD_CONTROL_POINT_2D) number 137.
LIFT gradient : -0.0239803
-------------------------------------------------------------------------

Design variable (FFD_CONTROL_POINT_2D) number 138.
LIFT gradient : -0.0153501
-------------------------------------------------------------------------

Design variable (FFD_CONTROL_POINT_2D) number 139.
LIFT gradient : 0.00187138
-------------------------------------------------------------------------

Design variable (FFD_CONTROL_POINT_2D) number 140.
LIFT gradient : 0.0177428
-------------------------------------------------------------------------

Design variable (FFD_CONTROL_POINT_2D) number 141.
LIFT gradient : 0.0212521
-------------------------------------------------------------------------

Design variable (FFD_CONTROL_POINT_2D) number 142.
LIFT gradient : 0.00939668
-------------------------------------------------------------------------

Design variable (FFD_CONTROL_POINT_2D) number 143.
LIFT gradient : -0.010036
-------------------------------------------------------------------------

Design variable (FFD_CONTROL_POINT_2D) number 144.
LIFT gradient : 0
-------------------------------------------------------------------------

Design variable (FFD_CONTROL_POINT_2D) number 145.
LIFT gradient : 0
-------------------------------------------------------------------------

Design variable (FFD_CONTROL_POINT_2D) number 146.
LIFT gradient : 0
-------------------------------------------------------------------------

Design variable (FFD_CONTROL_POINT_2D) number 147.
LIFT gradient : 0
-------------------------------------------------------------------------

Design variable (FFD_CONTROL_POINT_2D) number 148.
LIFT gradient : 0
-------------------------------------------------------------------------

Design variable (FFD_CONTROL_POINT_2D) number 149.
LIFT gradient : 0
-------------------------------------------------------------------------

Design variable (FFD_CONTROL_POINT_2D) number 150.
LIFT gradient : -0.00525621
-------------------------------------------------------------------------

Design variable (FFD_CONTROL_POINT_2D) number 151.
LIFT gradient : 0.0372295
-------------------------------------------------------------------------

Design variable (FFD_CONTROL_POINT_2D) number 152.
LIFT gradient : 0.0470708
-------------------------------------------------------------------------

Design variable (FFD_CONTROL_POINT_2D) number 153.
LIFT gradient : 0.0329408
-------------------------------------------------------------------------

Design variable (FFD_CONTROL_POINT_2D) number 154.
LIFT gradient : 0.0148938
-------------------------------------------------------------------------

Design variable (FFD_CONTROL_POINT_2D) number 155.
LIFT gradient : 0.00179428
-------------------------------------------------------------------------

Design variable (FFD_CONTROL_POINT_2D) number 156.
LIFT gradient : -0.00683685
-------------------------------------------------------------------------

Design variable (FFD_CONTROL_POINT_2D) number 157.
LIFT gradient : -0.0124155
-------------------------------------------------------------------------

Design variable (FFD_CONTROL_POINT_2D) number 158.
LIFT gradient : -0.013703
-------------------------------------------------------------------------

Design variable (FFD_CONTROL_POINT_2D) number 159.
LIFT gradient : -0.00877147
-------------------------------------------------------------------------

Design variable (FFD_CONTROL_POINT_2D) number 160.
LIFT gradient : 0.00106936
-------------------------------------------------------------------------

Design variable (FFD_CONTROL_POINT_2D) number 161.
LIFT gradient : 0.0101387
-------------------------------------------------------------------------

Design variable (FFD_CONTROL_POINT_2D) number 162.
LIFT gradient : 0.0121441
-------------------------------------------------------------------------

Design variable (FFD_CONTROL_POINT_2D) number 163.
LIFT gradient : 0.00536953
-------------------------------------------------------------------------

Design variable (FFD_CONTROL_POINT_2D) number 164.
LIFT gradient : -0.00573486
-------------------------------------------------------------------------

Design variable (FFD_CONTROL_POINT_2D) number 165.
LIFT gradient : 0
-------------------------------------------------------------------------

Design variable (FFD_CONTROL_POINT_2D) number 166.
LIFT gradient : 0
-------------------------------------------------------------------------

Design variable (FFD_CONTROL_POINT_2D) number 167.
LIFT gradient : 0
-------------------------------------------------------------------------

Design variable (FFD_CONTROL_POINT_2D) number 168.
LIFT gradient : 0
-------------------------------------------------------------------------

Design variable (FFD_CONTROL_POINT_2D) number 169.
LIFT gradient : 0
-------------------------------------------------------------------------

Design variable (FFD_CONTROL_POINT_2D) number 170.
LIFT gradient : 0
-------------------------------------------------------------------------

Design variable (FFD_CONTROL_POINT_2D) number 171.
LIFT gradient : -0.00197108
-------------------------------------------------------------------------

Design variable (FFD_CONTROL_POINT_2D) number 172.
LIFT gradient : 0.0139611
-------------------------------------------------------------------------

Design variable (FFD_CONTROL_POINT_2D) number 173.
LIFT gradient : 0.0176515
-------------------------------------------------------------------------

Design variable (FFD_CONTROL_POINT_2D) number 174.
LIFT gradient : 0.0123528
-------------------------------------------------------------------------

Design variable (FFD_CONTROL_POINT_2D) number 175.
LIFT gradient : 0.00558517
-------------------------------------------------------------------------

Design variable (FFD_CONTROL_POINT_2D) number 176.
LIFT gradient : 0.000672854
-------------------------------------------------------------------------

Design variable (FFD_CONTROL_POINT_2D) number 177.
LIFT gradient : -0.00256382
-------------------------------------------------------------------------

Design variable (FFD_CONTROL_POINT_2D) number 178.
LIFT gradient : -0.00465583
-------------------------------------------------------------------------

Design variable (FFD_CONTROL_POINT_2D) number 179.
LIFT gradient : -0.00513864
-------------------------------------------------------------------------

Design variable (FFD_CONTROL_POINT_2D) number 180.
LIFT gradient : -0.0032893
-------------------------------------------------------------------------

Design variable (FFD_CONTROL_POINT_2D) number 181.
LIFT gradient : 0.000401009
-------------------------------------------------------------------------

Design variable (FFD_CONTROL_POINT_2D) number 182.
LIFT gradient : 0.00380203
-------------------------------------------------------------------------

Design variable (FFD_CONTROL_POINT_2D) number 183.
LIFT gradient : 0.00455402
-------------------------------------------------------------------------

Design variable (FFD_CONTROL_POINT_2D) number 184.
LIFT gradient : 0.00201357
-------------------------------------------------------------------------

Design variable (FFD_CONTROL_POINT_2D) number 185.
LIFT gradient : -0.00215057
-------------------------------------------------------------------------

Design variable (FFD_CONTROL_POINT_2D) number 186.
LIFT gradient : 0
-------------------------------------------------------------------------

Design variable (FFD_CONTROL_POINT_2D) number 187.
LIFT gradient : 0
-------------------------------------------------------------------------

Design variable (FFD_CONTROL_POINT_2D) number 188.
LIFT gradient : 0
-------------------------------------------------------------------------

Design variable (FFD_CONTROL_POINT_2D) number 189.
LIFT gradient : 0
-------------------------------------------------------------------------

Design variable (FFD_CONTROL_POINT_2D) number 190.
LIFT gradient : 0
-------------------------------------------------------------------------

Design variable (FFD_CONTROL_POINT_2D) number 191.
LIFT gradient : 0
-------------------------------------------------------------------------

Design variable (FFD_CONTROL_POINT_2D) number 192.
LIFT gradient : -0.000438017
-------------------------------------------------------------------------

Design variable (FFD_CONTROL_POINT_2D) number 193.
LIFT gradient : 0.00310246
-------------------------------------------------------------------------

Design variable (FFD_CONTROL_POINT_2D) number 194.
LIFT gradient : 0.00392257
-------------------------------------------------------------------------

Design variable (FFD_CONTROL_POINT_2D) number 195.
LIFT gradient : 0.00274507
-------------------------------------------------------------------------

Design variable (FFD_CONTROL_POINT_2D) number 196.
LIFT gradient : 0.00124115
-------------------------------------------------------------------------

Design variable (FFD_CONTROL_POINT_2D) number 197.
LIFT gradient : 0.000149523
-------------------------------------------------------------------------

Design variable (FFD_CONTROL_POINT_2D) number 198.
LIFT gradient : -0.000569737
-------------------------------------------------------------------------

Design variable (FFD_CONTROL_POINT_2D) number 199.
LIFT gradient : -0.00103463
-------------------------------------------------------------------------

Design variable (FFD_CONTROL_POINT_2D) number 200.
LIFT gradient : -0.00114192
-------------------------------------------------------------------------

Design variable (FFD_CONTROL_POINT_2D) number 201.
LIFT gradient : -0.000730956
-------------------------------------------------------------------------

Design variable (FFD_CONTROL_POINT_2D) number 202.
LIFT gradient : 8.91132e-05
-------------------------------------------------------------------------

Design variable (FFD_CONTROL_POINT_2D) number 203.
LIFT gradient : 0.000844896
-------------------------------------------------------------------------

Design variable (FFD_CONTROL_POINT_2D) number 204.
LIFT gradient : 0.00101201
-------------------------------------------------------------------------

Design variable (FFD_CONTROL_POINT_2D) number 205.
LIFT gradient : 0.000447461
-------------------------------------------------------------------------

Design variable (FFD_CONTROL_POINT_2D) number 206.
LIFT gradient : -0.000477905
-------------------------------------------------------------------------

Design variable (FFD_CONTROL_POINT_2D) number 207.
LIFT gradient : 0
-------------------------------------------------------------------------

Design variable (FFD_CONTROL_POINT_2D) number 208.
LIFT gradient : 0
-------------------------------------------------------------------------

Design variable (FFD_CONTROL_POINT_2D) number 209.
LIFT gradient : 0
-------------------------------------------------------------------------

Design variable (FFD_CONTROL_POINT_2D) number 210.
LIFT gradient : 0
-------------------------------------------------------------------------

Design variable (FFD_CONTROL_POINT_2D) number 211.
LIFT gradient : 0
-------------------------------------------------------------------------

Design variable (FFD_CONTROL_POINT_2D) number 212.
LIFT gradient : 0
-------------------------------------------------------------------------

Design variable (FFD_CONTROL_POINT_2D) number 213.
LIFT gradient : -4.38017e-05
-------------------------------------------------------------------------

Design variable (FFD_CONTROL_POINT_2D) number 214.
LIFT gradient : 0.000310246
-------------------------------------------------------------------------

Design variable (FFD_CONTROL_POINT_2D) number 215.
LIFT gradient : 0.000392257
-------------------------------------------------------------------------

Design variable (FFD_CONTROL_POINT_2D) number 216.
LIFT gradient : 0.000274507
-------------------------------------------------------------------------

Design variable (FFD_CONTROL_POINT_2D) number 217.
LIFT gradient : 0.000124115
-------------------------------------------------------------------------

Design variable (FFD_CONTROL_POINT_2D) number 218.
LIFT gradient : 1.49523e-05
-------------------------------------------------------------------------

Design variable (FFD_CONTROL_POINT_2D) number 219.
LIFT gradient : -5.69737e-05
-------------------------------------------------------------------------

Design variable (FFD_CONTROL_POINT_2D) number 220.
LIFT gradient : -0.000103463
-------------------------------------------------------------------------

Design variable (FFD_CONTROL_POINT_2D) number 221.
LIFT gradient : -0.000114192
-------------------------------------------------------------------------

Design variable (FFD_CONTROL_POINT_2D) number 222.
LIFT gradient : -7.30956e-05
-------------------------------------------------------------------------

Design variable (FFD_CONTROL_POINT_2D) number 223.
LIFT gradient : 8.91132e-06
-------------------------------------------------------------------------

Design variable (FFD_CONTROL_POINT_2D) number 224.
LIFT gradient : 8.44896e-05
-------------------------------------------------------------------------

Design variable (FFD_CONTROL_POINT_2D) number 225.
LIFT gradient : 0.000101201
-------------------------------------------------------------------------

Design variable (FFD_CONTROL_POINT_2D) number 226.
LIFT gradient : 4.47461e-05
-------------------------------------------------------------------------

Design variable (FFD_CONTROL_POINT_2D) number 227.
LIFT gradient : -4.77905e-05
-------------------------------------------------------------------------

Design variable (FFD_CONTROL_POINT_2D) number 228.
LIFT gradient : 0
-------------------------------------------------------------------------

Design variable (FFD_CONTROL_POINT_2D) number 229.
LIFT gradient : 0
-------------------------------------------------------------------------

Design variable (FFD_CONTROL_POINT_2D) number 230.
LIFT gradient : 0
-------------------------------------------------------------------------

Design variable (FFD_CONTROL_POINT_2D) number 231.
LIFT gradient : 0
-------------------------------------------------------------------------

Design variable (FFD_CONTROL_POINT_2D) number 232.
LIFT gradient : 0
-------------------------------------------------------------------------

Design variable (FFD_CONTROL_POINT_2D) number 233.
LIFT gradient : 0
-------------------------------------------------------------------------

Design variable (FFD_CONTROL_POINT_2D) number 234.
LIFT gradient : 0
-------------------------------------------------------------------------

Design variable (FFD_CONTROL_POINT_2D) number 235.
LIFT gradient : 0
-------------------------------------------------------------------------

Design variable (FFD_CONTROL_POINT_2D) number 236.
LIFT gradient : 0
-------------------------------------------------------------------------

Design variable (FFD_CONTROL_POINT_2D) number 237.
LIFT gradient : 0
-------------------------------------------------------------------------

Design variable (FFD_CONTROL_POINT_2D) number 238.
LIFT gradient : 0
-------------------------------------------------------------------------

Design variable (FFD_CONTROL_POINT_2D) number 239.
LIFT gradient : 0
-------------------------------------------------------------------------

Design variable (FFD_CONTROL_POINT_2D) number 240.
LIFT gradient : 0
-------------------------------------------------------------------------

Design variable (FFD_CONTROL_POINT_2D) number 241.
LIFT gradient : 0
-------------------------------------------------------------------------

Design variable (FFD_CONTROL_POINT_2D) number 242.
LIFT gradient : 0
-------------------------------------------------------------------------

Design variable (FFD_CONTROL_POINT_2D) number 243.
LIFT gradient : 0
-------------------------------------------------------------------------

Design variable (FFD_CONTROL_POINT_2D) number 244.
LIFT gradient : 0
-------------------------------------------------------------------------

Design variable (FFD_CONTROL_POINT_2D) number 245.
LIFT gradient : 0
-------------------------------------------------------------------------

Design variable (FFD_CONTROL_POINT_2D) number 246.
LIFT gradient : 0
-------------------------------------------------------------------------

Design variable (FFD_CONTROL_POINT_2D) number 247.
LIFT gradient : 0
-------------------------------------------------------------------------

Design variable (FFD_CONTROL_POINT_2D) number 248.
LIFT gradient : 0
-------------------------------------------------------------------------

Design variable (FFD_CONTROL_POINT_2D) number 249.
LIFT gradient : 0
-------------------------------------------------------------------------

Design variable (FFD_CONTROL_POINT_2D) number 250.
LIFT gradient : 0
-------------------------------------------------------------------------

Design variable (FFD_CONTROL_POINT_2D) number 251.
LIFT gradient : 0
-------------------------------------------------------------------------

Design variable (FFD_CONTROL_POINT_2D) number 252.
LIFT gradient : 0
-------------------------------------------------------------------------

Design variable (FFD_CONTROL_POINT_2D) number 253.
LIFT gradient : 0
-------------------------------------------------------------------------

Design variable (FFD_CONTROL_POINT_2D) number 254.
LIFT gradient : 0
-------------------------------------------------------------------------

Design variable (FFD_CONTROL_POINT_2D) number 255.
LIFT gradient : 0
-------------------------------------------------------------------------

Design variable (FFD_CONTROL_POINT_2D) number 256.
LIFT gradient : 0
-------------------------------------------------------------------------

Design variable (FFD_CONTROL_POINT_2D) number 257.
LIFT gradient : 0
-------------------------------------------------------------------------

Design variable (FFD_CONTROL_POINT_2D) number 258.
LIFT gradient : 0
-------------------------------------------------------------------------

Design variable (FFD_CONTROL_POINT_2D) number 259.
LIFT gradient : 0
-------------------------------------------------------------------------

Design variable (FFD_CONTROL_POINT_2D) number 260.
LIFT gradient : 0
-------------------------------------------------------------------------

Design variable (FFD_CONTROL_POINT_2D) number 261.
LIFT gradient : 0
-------------------------------------------------------------------------

Design variable (FFD_CONTROL_POINT_2D) number 262.
LIFT gradient : 0
-------------------------------------------------------------------------

Design variable (FFD_CONTROL_POINT_2D) number 263.
LIFT gradient : 0
-------------------------------------------------------------------------

Design variable (FFD_CONTROL_POINT_2D) number 264.
LIFT gradient : 0
-------------------------------------------------------------------------

Design variable (FFD_CONTROL_POINT_2D) number 265.
LIFT gradient : 0
-------------------------------------------------------------------------

Design variable (FFD_CONTROL_POINT_2D) number 266.
LIFT gradient : 0
-------------------------------------------------------------------------

Design variable (FFD_CONTROL_POINT_2D) number 267.
LIFT gradient : 0
-------------------------------------------------------------------------

Design variable (FFD_CONTROL_POINT_2D) number 268.
LIFT gradient : 0
-------------------------------------------------------------------------

Design variable (FFD_CONTROL_POINT_2D) number 269.
LIFT gradient : 0
-------------------------------------------------------------------------

Design variable (FFD_CONTROL_POINT_2D) number 270.
LIFT gradient : 0
-------------------------------------------------------------------------

Design variable (FFD_CONTROL_POINT_2D) number 271.
LIFT gradient : 0
-------------------------------------------------------------------------

Design variable (FFD_CONTROL_POINT_2D) number 272.
LIFT gradient : 0
-------------------------------------------------------------------------

Design variable (FFD_CONTROL_POINT_2D) number 273.
LIFT gradient : 0
-------------------------------------------------------------------------

Design variable (FFD_CONTROL_POINT_2D) number 274.
LIFT gradient : 0
-------------------------------------------------------------------------

Design variable (FFD_CONTROL_POINT_2D) number 275.
LIFT gradient : 0
-------------------------------------------------------------------------

Design variable (FFD_CONTROL_POINT_2D) number 276.
LIFT gradient : 0
-------------------------------------------------------------------------

Design variable (FFD_CONTROL_POINT_2D) number 277.
LIFT gradient : 0
-------------------------------------------------------------------------

Design variable (FFD_CONTROL_POINT_2D) number 278.
LIFT gradient : 0
-------------------------------------------------------------------------

Design variable (FFD_CONTROL_POINT_2D) number 279.
LIFT gradient : 0
-------------------------------------------------------------------------

Design variable (FFD_CONTROL_POINT_2D) number 280.
LIFT gradient : 0
-------------------------------------------------------------------------

Design variable (FFD_CONTROL_POINT_2D) number 281.
LIFT gradient : 0
-------------------------------------------------------------------------

Design variable (FFD_CONTROL_POINT_2D) number 282.
LIFT gradient : 0
-------------------------------------------------------------------------

Design variable (FFD_CONTROL_POINT_2D) number 283.
LIFT gradient : 0
-------------------------------------------------------------------------

Design variable (FFD_CONTROL_POINT_2D) number 284.
LIFT gradient : 0
-------------------------------------------------------------------------

Design variable (FFD_CONTROL_POINT_2D) number 285.
LIFT gradient : 0
-------------------------------------------------------------------------

Design variable (FFD_CONTROL_POINT_2D) number 286.
LIFT gradient : 0
-------------------------------------------------------------------------

Design variable (FFD_CONTROL_POINT_2D) number 287.
LIFT gradient : 0
-------------------------------------------------------------------------

Design variable (FFD_CONTROL_POINT_2D) number 288.
LIFT gradient : 0
-------------------------------------------------------------------------

Design variable (FFD_CONTROL_POINT_2D) number 289.
LIFT gradient : 0
-------------------------------------------------------------------------

Design variable (FFD_CONTROL_POINT_2D) number 290.
LIFT gradient : 0
-------------------------------------------------------------------------

Design variable (FFD_CONTROL_POINT_2D) number 291.
LIFT gradient : 0
-------------------------------------------------------------------------

Design variable (FFD_CONTROL_POINT_2D) number 292.
LIFT gradient : 0
-------------------------------------------------------------------------

Design variable (FFD_CONTROL_POINT_2D) number 293.
LIFT gradient : 0
-------------------------------------------------------------------------

Design variable (FFD_CONTROL_POINT_2D) number 294.
LIFT gradient : 0
-------------------------------------------------------------------------

Design variable (FFD_CONTROL_POINT_2D) number 295.
LIFT gradient : 0
-------------------------------------------------------------------------

Design variable (FFD_CONTROL_POINT_2D) number 296.
LIFT gradient : 0
-------------------------------------------------------------------------

Design variable (FFD_CONTROL_POINT_2D) number 297.
LIFT gradient : 0.0207568
-------------------------------------------------------------------------

[...]
LIFT gradient : -0.0375401
-------------------------------------------------------------------------

Design variable (FFD_CONTROL_POINT_2D) number 332.
LIFT gradient : 0.0404049
-------------------------------------------------------------------------

Design variable (FFD_CONTROL_POINT_2D) number 333.
LIFT gradient : 0
-------------------------------------------------------------------------

Design variable (FFD_CONTROL_POINT_2D) number 334.
LIFT gradient : 0
-------------------------------------------------------------------------

Design variable (FFD_CONTROL_POINT_2D) number 335.
LIFT gradient : 0
-------------------------------------------------------------------------

Design variable (FFD_CONTROL_POINT_2D) number 336.
LIFT gradient : 0
-------------------------------------------------------------------------

Design variable (FFD_CONTROL_POINT_2D) number 337.
LIFT gradient : 0
-------------------------------------------------------------------------

Design variable (FFD_CONTROL_POINT_2D) number 338.
LIFT gradient : 0
-------------------------------------------------------------------------

Design variable (FFD_CONTROL_POINT_2D) number 339.
LIFT gradient : 0.0435892
-------------------------------------------------------------------------

Design variable (FFD_CONTROL_POINT_2D) number 340.
LIFT gradient : -0.312942
-------------------------------------------------------------------------

Design variable (FFD_CONTROL_POINT_2D) number 341.
LIFT gradient : -0.395427
-------------------------------------------------------------------------

Design variable (FFD_CONTROL_POINT_2D) number 342.
LIFT gradient : -0.276743
-------------------------------------------------------------------------

Design variable (FFD_CONTROL_POINT_2D) number 343.
LIFT gradient : -0.125193
-------------------------------------------------------------------------

Design variable (FFD_CONTROL_POINT_2D) number 344.
LIFT gradient : -0.015185
-------------------------------------------------------------------------

Design variable (FFD_CONTROL_POINT_2D) number 345.
LIFT gradient : 0.057308
-------------------------------------------------------------------------

Design variable (FFD_CONTROL_POINT_2D) number 346.
LIFT gradient : 0.104173
-------------------------------------------------------------------------

Design variable (FFD_CONTROL_POINT_2D) number 347.
LIFT gradient : 0.114998
-------------------------------------------------------------------------

Design variable (FFD_CONTROL_POINT_2D) number 348.
LIFT gradient : 0.073586
-------------------------------------------------------------------------

Design variable (FFD_CONTROL_POINT_2D) number 349.
LIFT gradient : -0.00906005
-------------------------------------------------------------------------

Design variable (FFD_CONTROL_POINT_2D) number 350.
LIFT gradient : -0.0852212
-------------------------------------------------------------------------

Design variable (FFD_CONTROL_POINT_2D) number 351.
LIFT gradient : -0.102032
-------------------------------------------------------------------------

Design variable (FFD_CONTROL_POINT_2D) number 352.
LIFT gradient : -0.0450481
-------------------------------------------------------------------------

Design variable (FFD_CONTROL_POINT_2D) number 353.
LIFT gradient : 0.0484859
-------------------------------------------------------------------------

Design variable (FFD_CONTROL_POINT_2D) number 354.
LIFT gradient : 0
-------------------------------------------------------------------------

Design variable (FFD_CONTROL_POINT_2D) number 355.
LIFT gradient : 0
-------------------------------------------------------------------------

Design variable (FFD_CONTROL_POINT_2D) number 356.
LIFT gradient : 0
-------------------------------------------------------------------------

Design variable (FFD_CONTROL_POINT_2D) number 357.
LIFT gradient : 0
-------------------------------------------------------------------------

Design variable (FFD_CONTROL_POINT_2D) number 358.
LIFT gradient : 0
-------------------------------------------------------------------------

Design variable (FFD_CONTROL_POINT_2D) number 359.
LIFT gradient : 0
-------------------------------------------------------------------------

Design variable (FFD_CONTROL_POINT_2D) number 360.
LIFT gradient : 0.0363244
-------------------------------------------------------------------------

Design variable (FFD_CONTROL_POINT_2D) number 361.
LIFT gradient : -0.260785
-------------------------------------------------------------------------

Design variable (FFD_CONTROL_POINT_2D) number 362.
LIFT gradient : -0.329522
-------------------------------------------------------------------------

Design variable (FFD_CONTROL_POINT_2D) number 363.
LIFT gradient : -0.230619
-------------------------------------------------------------------------

Design variable (FFD_CONTROL_POINT_2D) number 364.
LIFT gradient : -0.104327
-------------------------------------------------------------------------

Design variable (FFD_CONTROL_POINT_2D) number 365.
LIFT gradient : -0.0126541
-------------------------------------------------------------------------

Design variable (FFD_CONTROL_POINT_2D) number 366.
LIFT gradient : 0.0477566
-------------------------------------------------------------------------

Design variable (FFD_CONTROL_POINT_2D) number 367.
LIFT gradient : 0.0868104
-------------------------------------------------------------------------

Design variable (FFD_CONTROL_POINT_2D) number 368.
LIFT gradient : 0.0958313
-------------------------------------------------------------------------

Design variable (FFD_CONTROL_POINT_2D) number 369.
LIFT gradient : 0.0613217
-------------------------------------------------------------------------

Design variable (FFD_CONTROL_POINT_2D) number 370.
LIFT gradient : -0.00755004
-------------------------------------------------------------------------

Design variable (FFD_CONTROL_POINT_2D) number 371.
LIFT gradient : -0.0710177
-------------------------------------------------------------------------

Design variable (FFD_CONTROL_POINT_2D) number 372.
LIFT gradient : -0.0850266
-------------------------------------------------------------------------

Design variable (FFD_CONTROL_POINT_2D) number 373.
LIFT gradient : -0.0375401
-------------------------------------------------------------------------

Design variable (FFD_CONTROL_POINT_2D) number 374.
LIFT gradient : 0.0404049
-------------------------------------------------------------------------

Design variable (FFD_CONTROL_POINT_2D) number 375.
LIFT gradient : 0
-------------------------------------------------------------------------

Design variable (FFD_CONTROL_POINT_2D) number 376.
LIFT gradient : 0
-------------------------------------------------------------------------

Design variable (FFD_CONTROL_POINT_2D) number 377.
LIFT gradient : 0
-------------------------------------------------------------------------

Design variable (FFD_CONTROL_POINT_2D) number 378.
LIFT gradient : 0
-------------------------------------------------------------------------

Design variable (FFD_CONTROL_POINT_2D) number 379.
LIFT gradient : 0
-------------------------------------------------------------------------

Design variable (FFD_CONTROL_POINT_2D) number 380.
LIFT gradient : 0
-------------------------------------------------------------------------

Design variable (FFD_CONTROL_POINT_2D) number 381.
LIFT gradient : 0.0207568
-------------------------------------------------------------------------

Design variable (FFD_CONTROL_POINT_2D) number 382.
LIFT gradient : -0.14902
-------------------------------------------------------------------------

Design variable (FFD_CONTROL_POINT_2D) number 383.
LIFT gradient : -0.188298
-------------------------------------------------------------------------

Design variable (FFD_CONTROL_POINT_2D) number 384.
LIFT gradient : -0.131782
-------------------------------------------------------------------------

Design variable (FFD_CONTROL_POINT_2D) number 385.
LIFT gradient : -0.0596156
-------------------------------------------------------------------------

Design variable (FFD_CONTROL_POINT_2D) number 386.
LIFT gradient : -0.00723094
-------------------------------------------------------------------------

Design variable (FFD_CONTROL_POINT_2D) number 387.
LIFT gradient : 0.0272895
-------------------------------------------------------------------------

Design variable (FFD_CONTROL_POINT_2D) number 388.
LIFT gradient : 0.049606
-------------------------------------------------------------------------

Design variable (FFD_CONTROL_POINT_2D) number 389.
LIFT gradient : 0.0547607
-------------------------------------------------------------------------

Design variable (FFD_CONTROL_POINT_2D) number 390.
LIFT gradient : 0.035041
-------------------------------------------------------------------------

Design variable (FFD_CONTROL_POINT_2D) number 391.
LIFT gradient : -0.00431431
-------------------------------------------------------------------------

Design variable (FFD_CONTROL_POINT_2D) number 392.
LIFT gradient : -0.0405815
-------------------------------------------------------------------------

Design variable (FFD_CONTROL_POINT_2D) number 393.
LIFT gradient : -0.0485866
-------------------------------------------------------------------------

Design variable (FFD_CONTROL_POINT_2D) number 394.
LIFT gradient : -0.0214515
-------------------------------------------------------------------------

Design variable (FFD_CONTROL_POINT_2D) number 395.
LIFT gradient : 0.0230885
-------------------------------------------------------------------------

Design variable (FFD_CONTROL_POINT_2D) number 396.
LIFT gradient : 0
-------------------------------------------------------------------------

Design variable (FFD_CONTROL_POINT_2D) number 397.
LIFT gradient : 0
-------------------------------------------------------------------------

Design variable (FFD_CONTROL_POINT_2D) number 398.
LIFT gradient : 0
-------------------------------------------------------------------------

Design variable (FFD_CONTROL_POINT_2D) number 399.
LIFT gradient : 0
-------------------------------------------------------------------------

Design variable (FFD_CONTROL_POINT_2D) number 400.
LIFT gradient : 0
-------------------------------------------------------------------------

Design variable (FFD_CONTROL_POINT_2D) number 401.
LIFT gradient : 0
-------------------------------------------------------------------------

Design variable (FFD_CONTROL_POINT_2D) number 402.
LIFT gradient : 0.00778379
-------------------------------------------------------------------------

Design variable (FFD_CONTROL_POINT_2D) number 403.
LIFT gradient : -0.0558824
-------------------------------------------------------------------------

Design variable (FFD_CONTROL_POINT_2D) number 404.
LIFT gradient : -0.0706119
-------------------------------------------------------------------------

Design variable (FFD_CONTROL_POINT_2D) number 405.
LIFT gradient : -0.0494184
-------------------------------------------------------------------------

Design variable (FFD_CONTROL_POINT_2D) number 406.
LIFT gradient : -0.0223558
-------------------------------------------------------------------------

Design variable (FFD_CONTROL_POINT_2D) number 407.
LIFT gradient : -0.0027116
-------------------------------------------------------------------------

Design variable (FFD_CONTROL_POINT_2D) number 408.
LIFT gradient : 0.0102336
-------------------------------------------------------------------------

Design variable (FFD_CONTROL_POINT_2D) number 409.
LIFT gradient : 0.0186022
-------------------------------------------------------------------------

Design variable (FFD_CONTROL_POINT_2D) number 410.
LIFT gradient : 0.0205353
-------------------------------------------------------------------------

Design variable (FFD_CONTROL_POINT_2D) number 411.
LIFT gradient : 0.0131404
-------------------------------------------------------------------------

Design variable (FFD_CONTROL_POINT_2D) number 412.
LIFT gradient : -0.00161787
-------------------------------------------------------------------------

Design variable (FFD_CONTROL_POINT_2D) number 413.
LIFT gradient : -0.0152181
-------------------------------------------------------------------------

Design variable (FFD_CONTROL_POINT_2D) number 414.
LIFT gradient : -0.01822
-------------------------------------------------------------------------

Design variable (FFD_CONTROL_POINT_2D) number 415.
LIFT gradient : -0.00804431
-------------------------------------------------------------------------

Design variable (FFD_CONTROL_POINT_2D) number 416.
LIFT gradient : 0.00865819
-------------------------------------------------------------------------

Design variable (FFD_CONTROL_POINT_2D) number 417.
LIFT gradient : 0
-------------------------------------------------------------------------

Design variable (FFD_CONTROL_POINT_2D) number 418.
LIFT gradient : 0
-------------------------------------------------------------------------

Design variable (FFD_CONTROL_POINT_2D) number 419.
LIFT gradient : 0
-------------------------------------------------------------------------

Design variable (FFD_CONTROL_POINT_2D) number 420.
LIFT gradient : 0
-------------------------------------------------------------------------

Design variable (FFD_CONTROL_POINT_2D) number 421.
LIFT gradient : 0
-------------------------------------------------------------------------

Design variable (FFD_CONTROL_POINT_2D) number 422.
LIFT gradient : 0
-------------------------------------------------------------------------

Design variable (FFD_CONTROL_POINT_2D) number 423.
LIFT gradient : 0.00172973
-------------------------------------------------------------------------

Design variable (FFD_CONTROL_POINT_2D) number 424.
LIFT gradient : -0.0124183
-------------------------------------------------------------------------

Design variable (FFD_CONTROL_POINT_2D) number 425.
LIFT gradient : -0.0156915
-------------------------------------------------------------------------

Design variable (FFD_CONTROL_POINT_2D) number 426.
LIFT gradient : -0.0109819
-------------------------------------------------------------------------

Design variable (FFD_CONTROL_POINT_2D) number 427.
LIFT gradient : -0.00496796
-------------------------------------------------------------------------

Design variable (FFD_CONTROL_POINT_2D) number 428.
LIFT gradient : -0.000602578
-------------------------------------------------------------------------

Design variable (FFD_CONTROL_POINT_2D) number 429.
LIFT gradient : 0.00227413
-------------------------------------------------------------------------

Design variable (FFD_CONTROL_POINT_2D) number 430.
LIFT gradient : 0.00413383
-------------------------------------------------------------------------

Design variable (FFD_CONTROL_POINT_2D) number 431.
LIFT gradient : 0.00456339
-------------------------------------------------------------------------

Design variable (FFD_CONTROL_POINT_2D) number 432.
LIFT gradient : 0.00292008
-------------------------------------------------------------------------

Design variable (FFD_CONTROL_POINT_2D) number 433.
LIFT gradient : -0.000359526
-------------------------------------------------------------------------

Design variable (FFD_CONTROL_POINT_2D) number 434.
LIFT gradient : -0.00338179
-------------------------------------------------------------------------

Design variable (FFD_CONTROL_POINT_2D) number 435.
LIFT gradient : -0.00404889
-------------------------------------------------------------------------

Design variable (FFD_CONTROL_POINT_2D) number 436.
LIFT gradient : -0.00178762
-------------------------------------------------------------------------

Design variable (FFD_CONTROL_POINT_2D) number 437.
LIFT gradient : 0.00192404
-------------------------------------------------------------------------

Design variable (FFD_CONTROL_POINT_2D) number 438.
LIFT gradient : 0
-------------------------------------------------------------------------

Design variable (FFD_CONTROL_POINT_2D) number 439.
LIFT gradient : 0
-------------------------------------------------------------------------

Design variable (FFD_CONTROL_POINT_2D) number 440.
LIFT gradient : 0
-------------------------------------------------------------------------

Design variable (FFD_CONTROL_POINT_2D) number 441.
LIFT gradient : 0
-------------------------------------------------------------------------

Design variable (FFD_CONTROL_POINT_2D) number 442.
LIFT gradient : 0
-------------------------------------------------------------------------

Design variable (FFD_CONTROL_POINT_2D) number 443.
LIFT gradient : 0
-------------------------------------------------------------------------

Design variable (FFD_CONTROL_POINT_2D) number 444.
LIFT gradient : 0.000172973
-------------------------------------------------------------------------

Design variable (FFD_CONTROL_POINT_2D) number 445.
LIFT gradient : -0.00124183
-------------------------------------------------------------------------

Design variable (FFD_CONTROL_POINT_2D) number 446.
LIFT gradient : -0.00156915
-------------------------------------------------------------------------

Design variable (FFD_CONTROL_POINT_2D) number 447.
LIFT gradient : -0.00109819
-------------------------------------------------------------------------

Design variable (FFD_CONTROL_POINT_2D) number 448.
LIFT gradient : -0.000496796
-------------------------------------------------------------------------

Design variable (FFD_CONTROL_POINT_2D) number 449.
LIFT gradient : -6.02578e-05
-------------------------------------------------------------------------

Design variable (FFD_CONTROL_POINT_2D) number 450.
LIFT gradient : 0.000227413
-------------------------------------------------------------------------

Design variable (FFD_CONTROL_POINT_2D) number 451.
LIFT gradient : 0.000413383
-------------------------------------------------------------------------

Design variable (FFD_CONTROL_POINT_2D) number 452.
LIFT gradient : 0.000456339
-------------------------------------------------------------------------

Design variable (FFD_CONTROL_POINT_2D) number 453.
LIFT gradient : 0.000292008
-------------------------------------------------------------------------

Design variable (FFD_CONTROL_POINT_2D) number 454.
LIFT gradient : -3.59526e-05
-------------------------------------------------------------------------

Design variable (FFD_CONTROL_POINT_2D) number 455.
LIFT gradient : -0.000338179
-------------------------------------------------------------------------

Design variable (FFD_CONTROL_POINT_2D) number 456.
LIFT gradient : -0.000404889
-------------------------------------------------------------------------

Design variable (FFD_CONTROL_POINT_2D) number 457.
LIFT gradient : -0.000178762
-------------------------------------------------------------------------

Design variable (FFD_CONTROL_POINT_2D) number 458.
LIFT gradient : 0.000192404
-------------------------------------------------------------------------

Design variable (FFD_CONTROL_POINT_2D) number 459.
LIFT gradient : 0
-------------------------------------------------------------------------

Design variable (FFD_CONTROL_POINT_2D) number 460.
LIFT gradient : 0
-------------------------------------------------------------------------

Design variable (FFD_CONTROL_POINT_2D) number 461.
LIFT gradient : 0
-------------------------------------------------------------------------

------------------------- Finalize Solver  -------------------------
Deleted CNumerics container.
Deleted CSolver container.
Deleted CGeometry container.
Deleted CSurfaceMovement class.
Deleted CVolumetricMovement class.
Deleted CConfig container.
Deleted COutput class.

------------------------- Exit Success (SU2_DOT) ------------------------

