
-------------------------------------------------------------------------
|    ___ _   _ ___                                                      |
|   / __| | | |_  )   Release 8.0.1 "Harrier"                           |
|   \__ \ |_| |/ /                                                      |
|   |___/\___//___|   Suite (Mesh Deformation Code)                     |
|                                                                       |
-------------------------------------------------------------------------
| SU2 Project Website: https://su2code.github.io                        |
|                                                                       |
| The SU2 Project is maintained by the SU2 Foundation                   |
| (http://su2foundation.org)                                            |
-------------------------------------------------------------------------
| Copyright 2012-2024, SU2 Contributors                                 |
|                                                                       |
| SU2 is free software; you can redistribute it and/or                  |
| modify it under the terms of the GNU Lesser General Public            |
| License as published by the Free Software Foundation; either          |
| version 2.1 of the License, or (at your option) any later version.    |
|                                                                       |
| SU2 is distributed in the hope that it will be useful,                |
| but WITHOUT ANY WARRANTY; without even the implied warranty of        |
| MERCHANTABILITY or FITNESS FOR A PARTICULAR PURPOSE. See the GNU      |
| Lesser General Public License for more details.                       |
|                                                                       |
| You should have received a copy of the GNU Lesser General Public      |
| License along with SU2. If not, see <http://www.gnu.org/licenses/>.   |
-------------------------------------------------------------------------

----------------- Physical Case Definition ( Zone 0 ) -------------------
Input mesh file name: ../wedge_with_ffd.su2
Input sensitivity file name: restart_adj_custom.dat.

-------------- Surface deformation parameters ( Zone 0 ) ----------------
Design variables definition (markers <-> value <-> param):
FFD 2D (control point) <-> Wall <-> 0 <-> ( Wall, 0, 0, 1, 0 )
FFD 2D (control point) <-> Wall <-> 0 <-> ( Wall, 1, 0, 1, 0 )
FFD 2D (control point) <-> Wall <-> 0 <-> ( Wall, 2, 0, 1, 0 )
FFD 2D (control point) <-> Wall <-> 0 <-> ( Wall, 3, 0, 1, 0 )
FFD 2D (control point) <-> Wall <-> 0 <-> ( Wall, 4, 0, 1, 0 )
FFD 2D (control point) <-> Wall <-> 0 <-> ( Wall, 5, 0, 1, 0 )
FFD 2D (control point) <-> Wall <-> 0 <-> ( Wall, 6, 0, 1, 0 )
FFD 2D (control point) <-> Wall <-> 0 <-> ( Wall, 7, 0, 1, 0 )
FFD 2D (control point) <-> Wall <-> 0 <-> ( Wall, 8, 0, 1, 0 )
FFD 2D (control point) <-> Wall <-> 0 <-> ( Wall, 9, 0, 1, 0 )
FFD 2D (control point) <-> Wall <-> 0 <-> ( Wall, 10, 0, 1, 0 )
FFD 2D (control point) <-> Wall <-> 0 <-> ( Wall, 11, 0, 1, 0 )
FFD 2D (control point) <-> Wall <-> 0 <-> ( Wall, 12, 0, 1, 0 )
FFD 2D (control point) <-> Wall <-> 0 <-> ( Wall, 13, 0, 1, 0 )
FFD 2D (control point) <-> Wall <-> 0 <-> ( Wall, 14, 0, 1, 0 )
FFD 2D (control point) <-> Wall <-> 0 <-> ( Wall, 15, 0, 1, 0 )
FFD 2D (control point) <-> Wall <-> 0 <-> ( Wall, 16, 0, 1, 0 )
FFD 2D (control point) <-> Wall <-> 0 <-> ( Wall, 17, 0, 1, 0 )
FFD 2D (control point) <-> Wall <-> 0 <-> ( Wall, 18, 0, 1, 0 )
FFD 2D (control point) <-> Wall <-> 0 <-> ( Wall, 19, 0, 1, 0 )
FFD 2D (control point) <-> Wall <-> 0 <-> ( Wall, 20, 0, 1, 0 )
FFD 2D (control point) <-> Wall <-> 0 <-> ( Wall, 0, 1, 1, 0 )
FFD 2D (control point) <-> Wall <-> 0 <-> ( Wall, 1, 1, 1, 0 )
FFD 2D (control point) <-> Wall <-> 0 <-> ( Wall, 2, 1, 1, 0 )
FFD 2D (control point) <-> Wall <-> 0 <-> ( Wall, 3, 1, 1, 0 )
FFD 2D (control point) <-> Wall <-> 0 <-> ( Wall, 4, 1, 1, 0 )
FFD 2D (control point) <-> Wall <-> 0 <-> ( Wall, 5, 1, 1, 0 )
FFD 2D (control point) <-> Wall <-> 0 <-> ( Wall, 6, 1, 1, 0 )
FFD 2D (control point) <-> Wall <-> 0 <-> ( Wall, 7, 1, 1, 0 )
FFD 2D (control point) <-> Wall <-> 0 <-> ( Wall, 8, 1, 1, 0 )
FFD 2D (control point) <-> Wall <-> 0 <-> ( Wall, 9, 1, 1, 0 )
FFD 2D (control point) <-> Wall <-> 0 <-> ( Wall, 10, 1, 1, 0 )
FFD 2D (control point) <-> Wall <-> 0 <-> ( Wall, 11, 1, 1, 0 )
FFD 2D (control point) <-> Wall <-> 0 <-> ( Wall, 12, 1, 1, 0 )
FFD 2D (control point) <-> Wall <-> 0 <-> ( Wall, 13, 1, 1, 0 )
FFD 2D (control point) <-> Wall <-> 0 <-> ( Wall, 14, 1, 1, 0 )
FFD 2D (control point) <-> Wall <-> 0 <-> ( Wall, 15, 1, 1, 0 )
FFD 2D (control point) <-> Wall <-> 0 <-> ( Wall, 16, 1, 1, 0 )
FFD 2D (control point) <-> Wall <-> 0 <-> ( Wall, 17, 1, 1, 0 )
FFD 2D (control point) <-> Wall <-> 0 <-> ( Wall, 18, 1, 1, 0 )
FFD 2D (control point) <-> Wall <-> 0 <-> ( Wall, 19, 1, 1, 0 )
FFD 2D (control point) <-> Wall <-> 0 <-> ( Wall, 20, 1, 1, 0 )
FFD 2D (control point) <-> Wall <-> 0 <-> ( Wall, 0, 2, 1, 0 )
FFD 2D (control point) <-> Wall <-> 0 <-> ( Wall, 1, 2, 1, 0 )
FFD 2D (control point) <-> Wall <-> 0 <-> ( Wall, 2, 2, 1, 0 )
FFD 2D (control point) <-> Wall <-> 0 <-> ( Wall, 3, 2, 1, 0 )
FFD 2D (control point) <-> Wall <-> 0 <-> ( Wall, 4, 2, 1, 0 )
FFD 2D (control point) <-> Wall <-> 0 <-> ( Wall, 5, 2, 1, 0 )
FFD 2D (control point) <-> Wall <-> 0 <-> ( Wall, 6, 2, 1, 0 )
FFD 2D (control point) <-> Wall <-> 0 <-> ( Wall, 7, 2, 1, 0 )
FFD 2D (control point) <-> Wall <-> 0 <-> ( Wall, 8, 2, 1, 0 )
FFD 2D (control point) <-> Wall <-> 0 <-> ( Wall, 9, 2, 1, 0 )
FFD 2D (control point) <-> Wall <-> 0 <-> ( Wall, 10, 2, 1, 0 )
FFD 2D (control point) <-> Wall <-> 0 <-> ( Wall, 11, 2, 1, 0 )
FFD 2D (control point) <-> Wall <-> 0 <-> ( Wall, 12, 2, 1, 0 )
FFD 2D (control point) <-> Wall <-> 0 <-> ( Wall, 13, 2, 1, 0 )
FFD 2D (control point) <-> Wall <-> 0 <-> ( Wall, 14, 2, 1, 0 )
FFD 2D (control point) <-> Wall <-> 0 <-> ( Wall, 15, 2, 1, 0 )
FFD 2D (control point) <-> Wall <-> 0 <-> ( Wall, 16, 2, 1, 0 )
FFD 2D (control point) <-> Wall <-> 0 <-> ( Wall, 17, 2, 1, 0 )
FFD 2D (control point) <-> Wall <-> 0 <-> ( Wall, 18, 2, 1, 0 )
FFD 2D (control point) <-> Wall <-> 0 <-> ( Wall, 19, 2, 1, 0 )
FFD 2D (control point) <-> Wall <-> 0 <-> ( Wall, 20, 2, 1, 0 )
FFD 2D (control point) <-> Wall <-> 0 <-> ( Wall, 0, 3, 1, 0 )
FFD 2D (control point) <-> Wall <-> 0 <-> ( Wall, 1, 3, 1, 0 )
FFD 2D (control point) <-> Wall <-> 0 <-> ( Wall, 2, 3, 1, 0 )
FFD 2D (control point) <-> Wall <-> 0 <-> ( Wall, 3, 3, 1, 0 )
FFD 2D (control point) <-> Wall <-> 0 <-> ( Wall, 4, 3, 1, 0 )
FFD 2D (control point) <-> Wall <-> 0 <-> ( Wall, 5, 3, 1, 0 )
FFD 2D (control point) <-> Wall <-> 0 <-> ( Wall, 6, 3, 1, 0 )
FFD 2D (control point) <-> Wall <-> 0 <-> ( Wall, 7, 3, 1, 0 )
FFD 2D (control point) <-> Wall <-> 0 <-> ( Wall, 8, 3, 1, 0 )
FFD 2D (control point) <-> Wall <-> 0 <-> ( Wall, 9, 3, 1, 0 )
FFD 2D (control point) <-> Wall <-> 0 <-> ( Wall, 10, 3, 1, 0 )
FFD 2D (control point) <-> Wall <-> 0 <-> ( Wall, 11, 3, 1, 0 )
FFD 2D (control point) <-> Wall <-> 0 <-> ( Wall, 12, 3, 1, 0 )
FFD 2D (control point) <-> Wall <-> 0 <-> ( Wall, 13, 3, 1, 0 )
FFD 2D (control point) <-> Wall <-> 0 <-> ( Wall, 14, 3, 1, 0 )
FFD 2D (control point) <-> Wall <-> 0 <-> ( Wall, 15, 3, 1, 0 )
FFD 2D (control point) <-> Wall <-> 0 <-> ( Wall, 16, 3, 1, 0 )
FFD 2D (control point) <-> Wall <-> 0 <-> ( Wall, 17, 3, 1, 0 )
FFD 2D (control point) <-> Wall <-> 0 <-> ( Wall, 18, 3, 1, 0 )
FFD 2D (control point) <-> Wall <-> 0 <-> ( Wall, 19, 3, 1, 0 )
FFD 2D (control point) <-> Wall <-> 0 <-> ( Wall, 20, 3, 1, 0 )
FFD 2D (control point) <-> Wall <-> 0 <-> ( Wall, 0, 4, 1, 0 )
FFD 2D (control point) <-> Wall <-> 0 <-> ( Wall, 1, 4, 1, 0 )
FFD 2D (control point) <-> Wall <-> 0 <-> ( Wall, 2, 4, 1, 0 )
FFD 2D (control point) <-> Wall <-> 0 <-> ( Wall, 3, 4, 1, 0 )
FFD 2D (control point) <-> Wall <-> 0 <-> ( Wall, 4, 4, 1, 0 )
FFD 2D (control point) <-> Wall <-> 0 <-> ( Wall, 5, 4, 1, 0 )
FFD 2D (control point) <-> Wall <-> 0 <-> ( Wall, 6, 4, 1, 0 )
FFD 2D (control point) <-> Wall <-> 0 <-> ( Wall, 7, 4, 1, 0 )
FFD 2D (control point) <-> Wall <-> 0 <-> ( Wall, 8, 4, 1, 0 )
FFD 2D (control point) <-> Wall <-> 0 <-> ( Wall, 9, 4, 1, 0 )
FFD 2D (control point) <-> Wall <-> 0 <-> ( Wall, 10, 4, 1, 0 )
FFD 2D (control point) <-> Wall <-> 0 <-> ( Wall, 11, 4, 1, 0 )
FFD 2D (control point) <-> Wall <-> 0 <-> ( Wall, 12, 4, 1, 0 )
FFD 2D (control point) <-> Wall <-> 0 <-> ( Wall, 13, 4, 1, 0 )
FFD 2D (control point) <-> Wall <-> 0 <-> ( Wall, 14, 4, 1, 0 )
FFD 2D (control point) <-> Wall <-> 0 <-> ( Wall, 15, 4, 1, 0 )
FFD 2D (control point) <-> Wall <-> 0 <-> ( Wall, 16, 4, 1, 0 )
FFD 2D (control point) <-> Wall <-> 0 <-> ( Wall, 17, 4, 1, 0 )
FFD 2D (control point) <-> Wall <-> 0 <-> ( Wall, 18, 4, 1, 0 )
FFD 2D (control point) <-> Wall <-> 0 <-> ( Wall, 19, 4, 1, 0 )
FFD 2D (control point) <-> Wall <-> 0 <-> ( Wall, 20, 4, 1, 0 )
FFD 2D (control point) <-> Wall <-> 0 <-> ( Wall, 0, 5, 1, 0 )
FFD 2D (control point) <-> Wall <-> 0 <-> ( Wall, 1, 5, 1, 0 )
FFD 2D (control point) <-> Wall <-> 0 <-> ( Wall, 2, 5, 1, 0 )
FFD 2D (control point) <-> Wall <-> 0 <-> ( Wall, 3, 5, 1, 0 )
FFD 2D (control point) <-> Wall <-> 0 <-> ( Wall, 4, 5, 1, 0 )
FFD 2D (control point) <-> Wall <-> 0 <-> ( Wall, 5, 5, 1, 0 )
FFD 2D (control point) <-> Wall <-> 0 <-> ( Wall, 6, 5, 1, 0 )
FFD 2D (control point) <-> Wall <-> 0 <-> ( Wall, 7, 5, 1, 0 )
FFD 2D (control point) <-> Wall <-> 0 <-> ( Wall, 8, 5, 1, 0 )
FFD 2D (control point) <-> Wall <-> 0 <-> ( Wall, 9, 5, 1, 0 )
FFD 2D (control point) <-> Wall <-> 0 <-> ( Wall, 10, 5, 1, 0 )
FFD 2D (control point) <-> Wall <-> 0 <-> ( Wall, 11, 5, 1, 0 )
FFD 2D (control point) <-> Wall <-> 0 <-> ( Wall, 12, 5, 1, 0 )
FFD 2D (control point) <-> Wall <-> 0 <-> ( Wall, 13, 5, 1, 0 )
FFD 2D (control point) <-> Wall <-> 0 <-> ( Wall, 14, 5, 1, 0 )
FFD 2D (control point) <-> Wall <-> 0 <-> ( Wall, 15, 5, 1, 0 )
FFD 2D (control point) <-> Wall <-> 0 <-> ( Wall, 16, 5, 1, 0 )
FFD 2D (control point) <-> Wall <-> 0 <-> ( Wall, 17, 5, 1, 0 )
FFD 2D (control point) <-> Wall <-> 0 <-> ( Wall, 18, 5, 1, 0 )
FFD 2D (control point) <-> Wall <-> 0 <-> ( Wall, 19, 5, 1, 0 )
FFD 2D (control point) <-> Wall <-> 0 <-> ( Wall, 20, 5, 1, 0 )
FFD 2D (control point) <-> Wall <-> 0 <-> ( Wall, 0, 6, 1, 0 )
FFD 2D (control point) <-> Wall <-> 0 <-> ( Wall, 1, 6, 1, 0 )
FFD 2D (control point) <-> Wall <-> 0 <-> ( Wall, 2, 6, 1, 0 )
FFD 2D (control point) <-> Wall <-> 0 <-> ( Wall, 3, 6, 1, 0 )
FFD 2D (control point) <-> Wall <-> 0 <-> ( Wall, 4, 6, 1, 0 )
FFD 2D (control point) <-> Wall <-> 0 <-> ( Wall, 5, 6, 1, 0 )
FFD 2D (control point) <-> Wall <-> 0 <-> ( Wall, 6, 6, 1, 0 )
FFD 2D (control point) <-> Wall <-> 0 <-> ( Wall, 7, 6, 1, 0 )
FFD 2D (control point) <-> Wall <-> 0 <-> ( Wall, 8, 6, 1, 0 )
FFD 2D (control point) <-> Wall <-> 0 <-> ( Wall, 9, 6, 1, 0 )
FFD 2D (control point) <-> Wall <-> 0 <-> ( Wall, 10, 6, 1, 0 )
FFD 2D (control point) <-> Wall <-> 0 <-> ( Wall, 11, 6, 1, 0 )
FFD 2D (control point) <-> Wall <-> 0 <-> ( Wall, 12, 6, 1, 0 )
FFD 2D (control point) <-> Wall <-> 0 <-> ( Wall, 13, 6, 1, 0 )
FFD 2D (control point) <-> Wall <-> 0 <-> ( Wall, 14, 6, 1, 0 )
FFD 2D (control point) <-> Wall <-> 0 <-> ( Wall, 15, 6, 1, 0 )
FFD 2D (control point) <-> Wall <-> 0 <-> ( Wall, 16, 6, 1, 0 )
FFD 2D (control point) <-> Wall <-> 0 <-> ( Wall, 17, 6, 1, 0 )
FFD 2D (control point) <-> Wall <-> 0 <-> ( Wall, 18, 6, 1, 0 )
FFD 2D (control point) <-> Wall <-> 0 <-> ( Wall, 19, 6, 1, 0 )
FFD 2D (control point) <-> Wall <-> 0 <-> ( Wall, 20, 6, 1, 0 )
FFD 2D (control point) <-> Wall <-> 0 <-> ( Wall, 0, 7, 1, 0 )
FFD 2D (control point) <-> Wall <-> 0 <-> ( Wall, 1, 7, 1, 0 )
FFD 2D (control point) <-> Wall <-> 0 <-> ( Wall, 2, 7, 1, 0 )
FFD 2D (control point) <-> Wall <-> 0 <-> ( Wall, 3, 7, 1, 0 )
FFD 2D (control point) <-> Wall <-> 0 <-> ( Wall, 4, 7, 1, 0 )
FFD 2D (control point) <-> Wall <-> 0 <-> ( Wall, 5, 7, 1, 0 )
FFD 2D (control point) <-> Wall <-> 0 <-> ( Wall, 6, 7, 1, 0 )
FFD 2D (control point) <-> Wall <-> 0 <-> ( Wall, 7, 7, 1, 0 )
FFD 2D (control point) <-> Wall <-> 0 <-> ( Wall, 8, 7, 1, 0 )
FFD 2D (control point) <-> Wall <-> 0 <-> ( Wall, 9, 7, 1, 0 )
FFD 2D (control point) <-> Wall <-> 0 <-> ( Wall, 10, 7, 1, 0 )
FFD 2D (control point) <-> Wall <-> 0 <-> ( Wall, 11, 7, 1, 0 )
FFD 2D (control point) <-> Wall <-> 0 <-> ( Wall, 12, 7, 1, 0 )
FFD 2D (control point) <-> Wall <-> 0 <-> ( Wall, 13, 7, 1, 0 )
FFD 2D (control point) <-> Wall <-> 0 <-> ( Wall, 14, 7, 1, 0 )
FFD 2D (control point) <-> Wall <-> 0 <-> ( Wall, 15, 7, 1, 0 )
FFD 2D (control point) <-> Wall <-> 0 <-> ( Wall, 16, 7, 1, 0 )
FFD 2D (control point) <-> Wall <-> 0 <-> ( Wall, 17, 7, 1, 0 )
FFD 2D (control point) <-> Wall <-> 0 <-> ( Wall, 18, 7, 1, 0 )
FFD 2D (control point) <-> Wall <-> 0 <-> ( Wall, 19, 7, 1, 0 )
FFD 2D (control point) <-> Wall <-> 0 <-> ( Wall, 20, 7, 1, 0 )
FFD 2D (control point) <-> Wall <-> 0 <-> ( Wall, 0, 8, 1, 0 )
FFD 2D (control point) <-> Wall <-> 0 <-> ( Wall, 1, 8, 1, 0 )
FFD 2D (control point) <-> Wall <-> 0 <-> ( Wall, 2, 8, 1, 0 )
FFD 2D (control point) <-> Wall <-> 0 <-> ( Wall, 3, 8, 1, 0 )
FFD 2D (control point) <-> Wall <-> 0 <-> ( Wall, 4, 8, 1, 0 )
FFD 2D (control point) <-> Wall <-> 0 <-> ( Wall, 5, 8, 1, 0 )
FFD 2D (control point) <-> Wall <-> 0 <-> ( Wall, 6, 8, 1, 0 )
FFD 2D (control point) <-> Wall <-> 0 <-> ( Wall, 7, 8, 1, 0 )
FFD 2D (control point) <-> Wall <-> 0 <-> ( Wall, 8, 8, 1, 0 )
FFD 2D (control point) <-> Wall <-> 0 <-> ( Wall, 9, 8, 1, 0 )
FFD 2D (control point) <-> Wall <-> 0 <-> ( Wall, 10, 8, 1, 0 )
FFD 2D (control point) <-> Wall <-> 0 <-> ( Wall, 11, 8, 1, 0 )
FFD 2D (control point) <-> Wall <-> 0 <-> ( Wall, 12, 8, 1, 0 )
FFD 2D (control point) <-> Wall <-> 0 <-> ( Wall, 13, 8, 1, 0 )
FFD 2D (control point) <-> Wall <-> 0 <-> ( Wall, 14, 8, 1, 0 )
FFD 2D (control point) <-> Wall <-> 0 <-> ( Wall, 15, 8, 1, 0 )
FFD 2D (control point) <-> Wall <-> 0 <-> ( Wall, 16, 8, 1, 0 )
FFD 2D (control point) <-> Wall <-> 0 <-> ( Wall, 17, 8, 1, 0 )
FFD 2D (control point) <-> Wall <-> 0 <-> ( Wall, 18, 8, 1, 0 )
FFD 2D (control point) <-> Wall <-> 0 <-> ( Wall, 19, 8, 1, 0 )
FFD 2D (control point) <-> Wall <-> 0 <-> ( Wall, 20, 8, 1, 0 )
FFD 2D (control point) <-> Wall <-> 0 <-> ( Wall, 0, 9, 1, 0 )
FFD 2D (control point) <-> Wall <-> 0 <-> ( Wall, 1, 9, 1, 0 )
FFD 2D (control point) <-> Wall <-> 0 <-> ( Wall, 2, 9, 1, 0 )
FFD 2D (control point) <-> Wall <-> 0 <-> ( Wall, 3, 9, 1, 0 )
FFD 2D (control point) <-> Wall <-> 0 <-> ( Wall, 4, 9, 1, 0 )
FFD 2D (control point) <-> Wall <-> 0 <-> ( Wall, 5, 9, 1, 0 )
FFD 2D (control point) <-> Wall <-> 0 <-> ( Wall, 6, 9, 1, 0 )
FFD 2D (control point) <-> Wall <-> 0 <-> ( Wall, 7, 9, 1, 0 )
FFD 2D (control point) <-> Wall <-> 0 <-> ( Wall, 8, 9, 1, 0 )
FFD 2D (control point) <-> Wall <-> 0 <-> ( Wall, 9, 9, 1, 0 )
FFD 2D (control point) <-> Wall <-> 0 <-> ( Wall, 10, 9, 1, 0 )
FFD 2D (control point) <-> Wall <-> 0 <-> ( Wall, 11, 9, 1, 0 )
FFD 2D (control point) <-> Wall <-> 0 <-> ( Wall, 12, 9, 1, 0 )
FFD 2D (control point) <-> Wall <-> 0 <-> ( Wall, 13, 9, 1, 0 )
FFD 2D (control point) <-> Wall <-> 0 <-> ( Wall, 14, 9, 1, 0 )
FFD 2D (control point) <-> Wall <-> 0 <-> ( Wall, 15, 9, 1, 0 )
FFD 2D (control point) <-> Wall <-> 0 <-> ( Wall, 16, 9, 1, 0 )
FFD 2D (control point) <-> Wall <-> 0 <-> ( Wall, 17, 9, 1, 0 )
FFD 2D (control point) <-> Wall <-> 0 <-> ( Wall, 18, 9, 1, 0 )
FFD 2D (control point) <-> Wall <-> 0 <-> ( Wall, 19, 9, 1, 0 )
FFD 2D (control point) <-> Wall <-> 0 <-> ( Wall, 20, 9, 1, 0 )
FFD 2D (control point) <-> Wall <-> 0 <-> ( Wall, 0, 10, 1, 0 )
FFD 2D (control point) <-> Wall <-> 0 <-> ( Wall, 1, 10, 1, 0 )
FFD 2D (control point) <-> Wall <-> 0 <-> ( Wall, 2, 10, 1, 0 )
FFD 2D (control point) <-> Wall <-> 0 <-> ( Wall, 3, 10, 1, 0 )
FFD 2D (control point) <-> Wall <-> 0 <-> ( Wall, 4, 10, 1, 0 )
FFD 2D (control point) <-> Wall <-> 0 <-> ( Wall, 5, 10, 1, 0 )
FFD 2D (control point) <-> Wall <-> 0 <-> ( Wall, 6, 10, 1, 0 )
FFD 2D (control point) <-> Wall <-> 0 <-> ( Wall, 7, 10, 1, 0 )
FFD 2D (control point) <-> Wall <-> 0 <-> ( Wall, 8, 10, 1, 0 )
FFD 2D (control point) <-> Wall <-> 0 <-> ( Wall, 9, 10, 1, 0 )
FFD 2D (control point) <-> Wall <-> 0 <-> ( Wall, 10, 10, 1, 0 )
FFD 2D (control point) <-> Wall <-> 0 <-> ( Wall, 11, 10, 1, 0 )
FFD 2D (control point) <-> Wall <-> 0 <-> ( Wall, 12, 10, 1, 0 )
FFD 2D (control point) <-> Wall <-> 0 <-> ( Wall, 13, 10, 1, 0 )
FFD 2D (control point) <-> Wall <-> 0 <-> ( Wall, 14, 10, 1, 0 )
FFD 2D (control point) <-> Wall <-> 0 <-> ( Wall, 15, 10, 1, 0 )
FFD 2D (control point) <-> Wall <-> 0 <-> ( Wall, 16, 10, 1, 0 )
FFD 2D (control point) <-> Wall <-> 0 <-> ( Wall, 17, 10, 1, 0 )
FFD 2D (control point) <-> Wall <-> 0 <-> ( Wall, 18, 10, 1, 0 )
FFD 2D (control point) <-> Wall <-> 0 <-> ( Wall, 19, 10, 1, 0 )
FFD 2D (control point) <-> Wall <-> 0 <-> ( Wall, 20, 10, 1, 0 )
FFD 2D (control point) <-> Wall <-> 0 <-> ( Wall, 0, 0, 0, 1 )
FFD 2D (control point) <-> Wall <-> 0 <-> ( Wall, 1, 0, 0, 1 )
FFD 2D (control point) <-> Wall <-> 0 <-> ( Wall, 2, 0, 0, 1 )
FFD 2D (control point) <-> Wall <-> 0 <-> ( Wall, 3, 0, 0, 1 )
FFD 2D (control point) <-> Wall <-> 0 <-> ( Wall, 4, 0, 0, 1 )
FFD 2D (control point) <-> Wall <-> 0 <-> ( Wall, 5, 0, 0, 1 )
FFD 2D (control point) <-> Wall <-> 0 <-> ( Wall, 6, 0, 0, 1 )
FFD 2D (control point) <-> Wall <-> 0 <-> ( Wall, 7, 0, 0, 1 )
FFD 2D (control point) <-> Wall <-> 0 <-> ( Wall, 8, 0, 0, 1 )
FFD 2D (control point) <-> Wall <-> 0 <-> ( Wall, 9, 0, 0, 1 )
FFD 2D (control point) <-> Wall <-> 0 <-> ( Wall, 10, 0, 0, 1 )
FFD 2D (control point) <-> Wall <-> 0 <-> ( Wall, 11, 0, 0, 1 )
FFD 2D (control point) <-> Wall <-> 0 <-> ( Wall, 12, 0, 0, 1 )
FFD 2D (control point) <-> Wall <-> 0 <-> ( Wall, 13, 0, 0, 1 )
FFD 2D (control point) <-> Wall <-> 0 <-> ( Wall, 14, 0, 0, 1 )
FFD 2D (control point) <-> Wall <-> 0 <-> ( Wall, 15, 0, 0, 1 )
FFD 2D (control point) <-> Wall <-> 0 <-> ( Wall, 16, 0, 0, 1 )
FFD 2D (control point) <-> Wall <-> 0 <-> ( Wall, 17, 0, 0, 1 )
FFD 2D (control point) <-> Wall <-> 0 <-> ( Wall, 18, 0, 0, 1 )
FFD 2D (control point) <-> Wall <-> 0 <-> ( Wall, 19, 0, 0, 1 )
FFD 2D (control point) <-> Wall <-> 0 <-> ( Wall, 20, 0, 0, 1 )
FFD 2D (control point) <-> Wall <-> 0 <-> ( Wall, 0, 1, 0, 1 )
FFD 2D (control point) <-> Wall <-> 0 <-> ( Wall, 1, 1, 0, 1 )
FFD 2D (control point) <-> Wall <-> 0 <-> ( Wall, 2, 1, 0, 1 )
FFD 2D (control point) <-> Wall <-> 0 <-> ( Wall, 3, 1, 0, 1 )
FFD 2D (control point) <-> Wall <-> 0 <-> ( Wall, 4, 1, 0, 1 )
FFD 2D (control point) <-> Wall <-> 0 <-> ( Wall, 5, 1, 0, 1 )
FFD 2D (control point) <-> Wall <-> 0 <-> ( Wall, 6, 1, 0, 1 )
FFD 2D (control point) <-> Wall <-> 0 <-> ( Wall, 7, 1, 0, 1 )
FFD 2D (control point) <-> Wall <-> 0 <-> ( Wall, 8, 1, 0, 1 )
FFD 2D (control point) <-> Wall <-> 0 <-> ( Wall, 9, 1, 0, 1 )
FFD 2D (control point) <-> Wall <-> 0 <-> ( Wall, 10, 1, 0, 1 )
FFD 2D (control point) <-> Wall <-> 0 <-> ( Wall, 11, 1, 0, 1 )
FFD 2D (control point) <-> Wall <-> 0 <-> ( Wall, 12, 1, 0, 1 )
FFD 2D (control point) <-> Wall <-> 0 <-> ( Wall, 13, 1, 0, 1 )
FFD 2D (control point) <-> Wall <-> 0 <-> ( Wall, 14, 1, 0, 1 )
FFD 2D (control point) <-> Wall <-> 0 <-> ( Wall, 15, 1, 0, 1 )
FFD 2D (control point) <-> Wall <-> 0 <-> ( Wall, 16, 1, 0, 1 )
FFD 2D (control point) <-> Wall <-> 0 <-> ( Wall, 17, 1, 0, 1 )
FFD 2D (control point) <-> Wall <-> 0 <-> ( Wall, 18, 1, 0, 1 )
FFD 2D (control point) <-> Wall <-> 0 <-> ( Wall, 19, 1, 0, 1 )
FFD 2D (control point) <-> Wall <-> 0 <-> ( Wall, 20, 1, 0, 1 )
FFD 2D (control point) <-> Wall <-> 0 <-> ( Wall, 0, 2, 0, 1 )
FFD 2D (control point) <-> Wall <-> 0 <-> ( Wall, 1, 2, 0, 1 )
FFD 2D (control point) <-> Wall <-> 0 <-> ( Wall, 2, 2, 0, 1 )
FFD 2D (control point) <-> Wall <-> 0 <-> ( Wall, 3, 2, 0, 1 )
FFD 2D (control point) <-> Wall <-> 0 <-> ( Wall, 4, 2, 0, 1 )
FFD 2D (control point) <-> Wall <-> 0 <-> ( Wall, 5, 2, 0, 1 )
FFD 2D (control point) <-> Wall <-> 0 <-> ( Wall, 6, 2, 0, 1 )
FFD 2D (control point) <-> Wall <-> 0 <-> ( Wall, 7, 2, 0, 1 )
FFD 2D (control point) <-> Wall <-> 0 <-> ( Wall, 8, 2, 0, 1 )
FFD 2D (control point) <-> Wall <-> 0 <-> ( Wall, 9, 2, 0, 1 )
FFD 2D (control point) <-> Wall <-> 0 <-> ( Wall, 10, 2, 0, 1 )
FFD 2D (control point) <-> Wall <-> 0 <-> ( Wall, 11, 2, 0, 1 )
FFD 2D (control point) <-> Wall <-> 0 <-> ( Wall, 12, 2, 0, 1 )
FFD 2D (control point) <-> Wall <-> 0 <-> ( Wall, 13, 2, 0, 1 )
FFD 2D (control point) <-> Wall <-> 0 <-> ( Wall, 14, 2, 0, 1 )
FFD 2D (control point) <-> Wall <-> 0 <-> ( Wall, 15, 2, 0, 1 )
FFD 2D (control point) <-> Wall <-> 0 <-> ( Wall, 16, 2, 0, 1 )
FFD 2D (control point) <-> Wall <-> 0 <-> ( Wall, 17, 2, 0, 1 )
FFD 2D (control point) <-> Wall <-> 0 <-> ( Wall, 18, 2, 0, 1 )
FFD 2D (control point) <-> Wall <-> 0 <-> ( Wall, 19, 2, 0, 1 )
FFD 2D (control point) <-> Wall <-> 0 <-> ( Wall, 20, 2, 0, 1 )
FFD 2D (control point) <-> Wall <-> 0 <-> ( Wall, 0, 3, 0, 1 )
FFD 2D (control point) <-> Wall <-> 0 <-> ( Wall, 1, 3, 0, 1 )
FFD 2D (control point) <-> Wall <-> 0 <-> ( Wall, 2, 3, 0, 1 )
FFD 2D (control point) <-> Wall <-> 0 <-> ( Wall, 3, 3, 0, 1 )
FFD 2D (control point) <-> Wall <-> 0 <-> ( Wall, 4, 3, 0, 1 )
FFD 2D (control point) <-> Wall <-> 0 <-> ( Wall, 5, 3, 0, 1 )
FFD 2D (control point) <-> Wall <-> 0 <-> ( Wall, 6, 3, 0, 1 )
FFD 2D (control point) <-> Wall <-> 0 <-> ( Wall, 7, 3, 0, 1 )
FFD 2D (control point) <-> Wall <-> 0 <-> ( Wall, 8, 3, 0, 1 )
FFD 2D (control point) <-> Wall <-> 0 <-> ( Wall, 9, 3, 0, 1 )
FFD 2D (control point) <-> Wall <-> 0 <-> ( Wall, 10, 3, 0, 1 )
FFD 2D (control point) <-> Wall <-> 0 <-> ( Wall, 11, 3, 0, 1 )
FFD 2D (control point) <-> Wall <-> 0 <-> ( Wall, 12, 3, 0, 1 )
FFD 2D (control point) <-> Wall <-> 0 <-> ( Wall, 13, 3, 0, 1 )
FFD 2D (control point) <-> Wall <-> 0 <-> ( Wall, 14, 3, 0, 1 )
FFD 2D (control point) <-> Wall <-> 0 <-> ( Wall, 15, 3, 0, 1 )
FFD 2D (control point) <-> Wall <-> 0 <-> ( Wall, 16, 3, 0, 1 )
FFD 2D (control point) <-> Wall <-> 0 <-> ( Wall, 17, 3, 0, 1 )
FFD 2D (control point) <-> Wall <-> 0 <-> ( Wall, 18, 3, 0, 1 )
FFD 2D (control point) <-> Wall <-> 0 <-> ( Wall, 19, 3, 0, 1 )
FFD 2D (control point) <-> Wall <-> 0 <-> ( Wall, 20, 3, 0, 1 )
FFD 2D (control point) <-> Wall <-> 0 <-> ( Wall, 0, 4, 0, 1 )
FFD 2D (control point) <-> Wall <-> 0 <-> ( Wall, 1, 4, 0, 1 )
FFD 2D (control point) <-> Wall <-> 0 <-> ( Wall, 2, 4, 0, 1 )
FFD 2D (control point) <-> Wall <-> 0 <-> ( Wall, 3, 4, 0, 1 )
FFD 2D (control point) <-> Wall <-> 0 <-> ( Wall, 4, 4, 0, 1 )
FFD 2D (control point) <-> Wall <-> 0 <-> ( Wall, 5, 4, 0, 1 )
FFD 2D (control point) <-> Wall <-> 0 <-> ( Wall, 6, 4, 0, 1 )
FFD 2D (control point) <-> Wall <-> 0 <-> ( Wall, 7, 4, 0, 1 )
FFD 2D (control point) <-> Wall <-> 0 <-> ( Wall, 8, 4, 0, 1 )
FFD 2D (control point) <-> Wall <-> 0 <-> ( Wall, 9, 4, 0, 1 )
FFD 2D (control point) <-> Wall <-> 0 <-> ( Wall, 10, 4, 0, 1 )
FFD 2D (control point) <-> Wall <-> 0 <-> ( Wall, 11, 4, 0, 1 )
FFD 2D (control point) <-> Wall <-> 0 <-> ( Wall, 12, 4, 0, 1 )
FFD 2D (control point) <-> Wall <-> 0 <-> ( Wall, 13, 4, 0, 1 )
FFD 2D (control point) <-> Wall <-> 0 <-> ( Wall, 14, 4, 0, 1 )
FFD 2D (control point) <-> Wall <-> 0 <-> ( Wall, 15, 4, 0, 1 )
FFD 2D (control point) <-> Wall <-> 0 <-> ( Wall, 16, 4, 0, 1 )
FFD 2D (control point) <-> Wall <-> 0 <-> ( Wall, 17, 4, 0, 1 )
FFD 2D (control point) <-> Wall <-> 0 <-> ( Wall, 18, 4, 0, 1 )
FFD 2D (control point) <-> Wall <-> 0 <-> ( Wall, 19, 4, 0, 1 )
FFD 2D (control point) <-> Wall <-> 0 <-> ( Wall, 20, 4, 0, 1 )
FFD 2D (control point) <-> Wall <-> 0 <-> ( Wall, 0, 5, 0, 1 )
FFD 2D (control point) <-> Wall <-> 0 <-> ( Wall, 1, 5, 0, 1 )
FFD 2D (control point) <-> Wall <-> 0 <-> ( Wall, 2, 5, 0, 1 )
FFD 2D (control point) <-> Wall <-> 0 <-> ( Wall, 3, 5, 0, 1 )
FFD 2D (control point) <-> Wall <-> 0 <-> ( Wall, 4, 5, 0, 1 )
FFD 2D (control point) <-> Wall <-> 0 <-> ( Wall, 5, 5, 0, 1 )
FFD 2D (control point) <-> Wall <-> 0 <-> ( Wall, 6, 5, 0, 1 )
FFD 2D (control point) <-> Wall <-> 0 <-> ( Wall, 7, 5, 0, 1 )
FFD 2D (control point) <-> Wall <-> 0 <-> ( Wall, 8, 5, 0, 1 )
FFD 2D (control point) <-> Wall <-> 0 <-> ( Wall, 9, 5, 0, 1 )
FFD 2D (control point) <-> Wall <-> 0 <-> ( Wall, 10, 5, 0, 1 )
FFD 2D (control point) <-> Wall <-> 0 <-> ( Wall, 11, 5, 0, 1 )
FFD 2D (control point) <-> Wall <-> 0 <-> ( Wall, 12, 5, 0, 1 )
FFD 2D (control point) <-> Wall <-> 0 <-> ( Wall, 13, 5, 0, 1 )
FFD 2D (control point) <-> Wall <-> 0 <-> ( Wall, 14, 5, 0, 1 )
FFD 2D (control point) <-> Wall <-> 0 <-> ( Wall, 15, 5, 0, 1 )
FFD 2D (control point) <-> Wall <-> 0 <-> ( Wall, 16, 5, 0, 1 )
FFD 2D (control point) <-> Wall <-> 0 <-> ( Wall, 17, 5, 0, 1 )
FFD 2D (control point) <-> Wall <-> 0 <-> ( Wall, 18, 5, 0, 1 )
FFD 2D (control point) <-> Wall <-> 0 <-> ( Wall, 19, 5, 0, 1 )
FFD 2D (control point) <-> Wall <-> 0 <-> ( Wall, 20, 5, 0, 1 )
FFD 2D (control point) <-> Wall <-> 0 <-> ( Wall, 0, 6, 0, 1 )
FFD 2D (control point) <-> Wall <-> 0 <-> ( Wall, 1, 6, 0, 1 )
FFD 2D (control point) <-> Wall <-> 0 <-> ( Wall, 2, 6, 0, 1 )
FFD 2D (control point) <-> Wall <-> 0 <-> ( Wall, 3, 6, 0, 1 )
FFD 2D (control point) <-> Wall <-> 0 <-> ( Wall, 4, 6, 0, 1 )
FFD 2D (control point) <-> Wall <-> 0 <-> ( Wall, 5, 6, 0, 1 )
FFD 2D (control point) <-> Wall <-> 0 <-> ( Wall, 6, 6, 0, 1 )
FFD 2D (control point) <-> Wall <-> 0 <-> ( Wall, 7, 6, 0, 1 )
FFD 2D (control point) <-> Wall <-> 0 <-> ( Wall, 8, 6, 0, 1 )
FFD 2D (control point) <-> Wall <-> 0 <-> ( Wall, 9, 6, 0, 1 )
FFD 2D (control point) <-> Wall <-> 0 <-> ( Wall, 10, 6, 0, 1 )
FFD 2D (control point) <-> Wall <-> 0 <-> ( Wall, 11, 6, 0, 1 )
FFD 2D (control point) <-> Wall <-> 0 <-> ( Wall, 12, 6, 0, 1 )
FFD 2D (control point) <-> Wall <-> 0 <-> ( Wall, 13, 6, 0, 1 )
FFD 2D (control point) <-> Wall <-> 0 <-> ( Wall, 14, 6, 0, 1 )
FFD 2D (control point) <-> Wall <-> 0 <-> ( Wall, 15, 6, 0, 1 )
FFD 2D (control point) <-> Wall <-> 0 <-> ( Wall, 16, 6, 0, 1 )
FFD 2D (control point) <-> Wall <-> 0 <-> ( Wall, 17, 6, 0, 1 )
FFD 2D (control point) <-> Wall <-> 0 <-> ( Wall, 18, 6, 0, 1 )
FFD 2D (control point) <-> Wall <-> 0 <-> ( Wall, 19, 6, 0, 1 )
FFD 2D (control point) <-> Wall <-> 0 <-> ( Wall, 20, 6, 0, 1 )
FFD 2D (control point) <-> Wall <-> 0 <-> ( Wall, 0, 7, 0, 1 )
FFD 2D (control point) <-> Wall <-> 0 <-> ( Wall, 1, 7, 0, 1 )
FFD 2D (control point) <-> Wall <-> 0 <-> ( Wall, 2, 7, 0, 1 )
FFD 2D (control point) <-> Wall <-> 0 <-> ( Wall, 3, 7, 0, 1 )
FFD 2D (control point) <-> Wall <-> 0 <-> ( Wall, 4, 7, 0, 1 )
FFD 2D (control point) <-> Wall <-> 0 <-> ( Wall, 5, 7, 0, 1 )
FFD 2D (control point) <-> Wall <-> 0 <-> ( Wall, 6, 7, 0, 1 )
FFD 2D (control point) <-> Wall <-> 0 <-> ( Wall, 7, 7, 0, 1 )
FFD 2D (control point) <-> Wall <-> 0 <-> ( Wall, 8, 7, 0, 1 )
FFD 2D (control point) <-> Wall <-> 0 <-> ( Wall, 9, 7, 0, 1 )
FFD 2D (control point) <-> Wall <-> 0 <-> ( Wall, 10, 7, 0, 1 )
FFD 2D (control point) <-> Wall <-> 0 <-> ( Wall, 11, 7, 0, 1 )
FFD 2D (control point) <-> Wall <-> 0 <-> ( Wall, 12, 7, 0, 1 )
FFD 2D (control point) <-> Wall <-> 0 <-> ( Wall, 13, 7, 0, 1 )
FFD 2D (control point) <-> Wall <-> 0 <-> ( Wall, 14, 7, 0, 1 )
FFD 2D (control point) <-> Wall <-> 0 <-> ( Wall, 15, 7, 0, 1 )
FFD 2D (control point) <-> Wall <-> 0 <-> ( Wall, 16, 7, 0, 1 )
FFD 2D (control point) <-> Wall <-> 0 <-> ( Wall, 17, 7, 0, 1 )
FFD 2D (control point) <-> Wall <-> 0 <-> ( Wall, 18, 7, 0, 1 )
FFD 2D (control point) <-> Wall <-> 0 <-> ( Wall, 19, 7, 0, 1 )
FFD 2D (control point) <-> Wall <-> 0 <-> ( Wall, 20, 7, 0, 1 )
FFD 2D (control point) <-> Wall <-> 0 <-> ( Wall, 0, 8, 0, 1 )
FFD 2D (control point) <-> Wall <-> 0 <-> ( Wall, 1, 8, 0, 1 )
FFD 2D (control point) <-> Wall <-> 0 <-> ( Wall, 2, 8, 0, 1 )
FFD 2D (control point) <-> Wall <-> 0 <-> ( Wall, 3, 8, 0, 1 )
FFD 2D (control point) <-> Wall <-> 0 <-> ( Wall, 4, 8, 0, 1 )
FFD 2D (control point) <-> Wall <-> 0 <-> ( Wall, 5, 8, 0, 1 )
FFD 2D (control point) <-> Wall <-> 0 <-> ( Wall, 6, 8, 0, 1 )
FFD 2D (control point) <-> Wall <-> 0 <-> ( Wall, 7, 8, 0, 1 )
FFD 2D (control point) <-> Wall <-> 0 <-> ( Wall, 8, 8, 0, 1 )
FFD 2D (control point) <-> Wall <-> 0 <-> ( Wall, 9, 8, 0, 1 )
FFD 2D (control point) <-> Wall <-> 0 <-> ( Wall, 10, 8, 0, 1 )
FFD 2D (control point) <-> Wall <-> 0 <-> ( Wall, 11, 8, 0, 1 )
FFD 2D (control point) <-> Wall <-> 0 <-> ( Wall, 12, 8, 0, 1 )
FFD 2D (control point) <-> Wall <-> 0 <-> ( Wall, 13, 8, 0, 1 )
FFD 2D (control point) <-> Wall <-> 0 <-> ( Wall, 14, 8, 0, 1 )
FFD 2D (control point) <-> Wall <-> 0 <-> ( Wall, 15, 8, 0, 1 )
FFD 2D (control point) <-> Wall <-> 0 <-> ( Wall, 16, 8, 0, 1 )
FFD 2D (control point) <-> Wall <-> 0 <-> ( Wall, 17, 8, 0, 1 )
FFD 2D (control point) <-> Wall <-> 0 <-> ( Wall, 18, 8, 0, 1 )
FFD 2D (control point) <-> Wall <-> 0 <-> ( Wall, 19, 8, 0, 1 )
FFD 2D (control point) <-> Wall <-> 0 <-> ( Wall, 20, 8, 0, 1 )
FFD 2D (control point) <-> Wall <-> 0 <-> ( Wall, 0, 9, 0, 1 )
FFD 2D (control point) <-> Wall <-> 0 <-> ( Wall, 1, 9, 0, 1 )
FFD 2D (control point) <-> Wall <-> 0 <-> ( Wall, 2, 9, 0, 1 )
FFD 2D (control point) <-> Wall <-> 0 <-> ( Wall, 3, 9, 0, 1 )
FFD 2D (control point) <-> Wall <-> 0 <-> ( Wall, 4, 9, 0, 1 )
FFD 2D (control point) <-> Wall <-> 0 <-> ( Wall, 5, 9, 0, 1 )
FFD 2D (control point) <-> Wall <-> 0 <-> ( Wall, 6, 9, 0, 1 )
FFD 2D (control point) <-> Wall <-> 0 <-> ( Wall, 7, 9, 0, 1 )
FFD 2D (control point) <-> Wall <-> 0 <-> ( Wall, 8, 9, 0, 1 )
FFD 2D (control point) <-> Wall <-> 0 <-> ( Wall, 9, 9, 0, 1 )
FFD 2D (control point) <-> Wall <-> 0 <-> ( Wall, 10, 9, 0, 1 )
FFD 2D (control point) <-> Wall <-> 0 <-> ( Wall, 11, 9, 0, 1 )
FFD 2D (control point) <-> Wall <-> 0 <-> ( Wall, 12, 9, 0, 1 )
FFD 2D (control point) <-> Wall <-> 0 <-> ( Wall, 13, 9, 0, 1 )
FFD 2D (control point) <-> Wall <-> 0 <-> ( Wall, 14, 9, 0, 1 )
FFD 2D (control point) <-> Wall <-> 0 <-> ( Wall, 15, 9, 0, 1 )
FFD 2D (control point) <-> Wall <-> 0 <-> ( Wall, 16, 9, 0, 1 )
FFD 2D (control point) <-> Wall <-> 0 <-> ( Wall, 17, 9, 0, 1 )
FFD 2D (control point) <-> Wall <-> 0 <-> ( Wall, 18, 9, 0, 1 )
FFD 2D (control point) <-> Wall <-> 0 <-> ( Wall, 19, 9, 0, 1 )
FFD 2D (control point) <-> Wall <-> 0 <-> ( Wall, 20, 9, 0, 1 )
FFD 2D (control point) <-> Wall <-> 0 <-> ( Wall, 0, 10, 0, 1 )
FFD 2D (control point) <-> Wall <-> 0 <-> ( Wall, 1, 10, 0, 1 )
FFD 2D (control point) <-> Wall <-> 0 <-> ( Wall, 2, 10, 0, 1 )
FFD 2D (control point) <-> Wall <-> 0 <-> ( Wall, 3, 10, 0, 1 )
FFD 2D (control point) <-> Wall <-> 0 <-> ( Wall, 4, 10, 0, 1 )
FFD 2D (control point) <-> Wall <-> 0 <-> ( Wall, 5, 10, 0, 1 )
FFD 2D (control point) <-> Wall <-> 0 <-> ( Wall, 6, 10, 0, 1 )
FFD 2D (control point) <-> Wall <-> 0 <-> ( Wall, 7, 10, 0, 1 )
FFD 2D (control point) <-> Wall <-> 0 <-> ( Wall, 8, 10, 0, 1 )
FFD 2D (control point) <-> Wall <-> 0 <-> ( Wall, 9, 10, 0, 1 )
FFD 2D (control point) <-> Wall <-> 0 <-> ( Wall, 10, 10, 0, 1 )
FFD 2D (control point) <-> Wall <-> 0 <-> ( Wall, 11, 10, 0, 1 )
FFD 2D (control point) <-> Wall <-> 0 <-> ( Wall, 12, 10, 0, 1 )
FFD 2D (control point) <-> Wall <-> 0 <-> ( Wall, 13, 10, 0, 1 )
FFD 2D (control point) <-> Wall <-> 0 <-> ( Wall, 14, 10, 0, 1 )
FFD 2D (control point) <-> Wall <-> 0 <-> ( Wall, 15, 10, 0, 1 )
FFD 2D (control point) <-> Wall <-> 0 <-> ( Wall, 16, 10, 0, 1 )
FFD 2D (control point) <-> Wall <-> 0 <-> ( Wall, 17, 10, 0, 1 )
FFD 2D (control point) <-> Wall <-> 0 <-> ( Wall, 18, 10, 0, 1 )
FFD 2D (control point) <-> Wall <-> 0 <-> ( Wall, 19, 10, 0, 1 )
FFD 2D (control point) <-> Wall <-> 0 <-> ( Wall, 20, 10, 0, 1 )

---------------- Design problem definition  ( Zone 0 ) ------------------
Custom objective function.

-------------------- Output Information ( Zone 0 ) ----------------------
Output Volume Sensitivity file name: volume_sens. 
Output Surface Sensitivity file name: surface_sens. 
Output gradient file name: of_grad.dat. 

------------- Config File Boundary Information ( Zone 0 ) ---------------
+-----------------------------------------------------------------------+
|                        Marker Type|                        Marker Name|
+-----------------------------------------------------------------------+
|                         Euler wall|                               Wall|
+-----------------------------------------------------------------------+
|                          Far-field|                                Far|
+-----------------------------------------------------------------------+
|          Supersonic inlet boundary|                              Inlet|
+-----------------------------------------------------------------------+
|         Supersonic outlet boundary|                             Outlet|
+-----------------------------------------------------------------------+
Two dimensional problem.
20301 grid points before partitioning.
20000 volume elements before partitioning.
4 surface markers.
140 boundary elements in index 0 (Marker = Inlet).
100 boundary elements in index 1 (Marker = Outlet).
200 boundary elements in index 2 (Marker = Far).
160 boundary elements in index 3 (Marker = Wall).
Executing the partitioning functions.
Building the graph adjacency structure.
Calling ParMETIS... graph partitioning complete (900 edge cuts).
Distributing ParMETIS coloring.
Rebalancing vertices.
Rebalancing volume element connectivity.
Rebalancing markers and surface elements.
22120 vertices including ghost points. 
20899 interior elements including halo cells. 
20899 quadrilaterals.
Establishing MPI communication patterns.
Identify vertices.
Storing a mapping from global to local point index.

----------------------- Preprocessing computations ----------------------
Setting local point connectivity.
Checking the numerical grid orientation of the elements.
All volume elements are correctly orientend.
There has been a re-orientation of 102 LINE surface elements.
Identify edges and vertices.
Setting the bound control volume structure.
Storing a mapping from global to local point index.
Reading volume sensitivities at each node from file.
Reading in sensitivity at iteration 0.

---------------------- Mesh sensitivity computation ---------------------

------------------------ Mesh sensitivity Output ------------------------
Volume output fields: COORDINATES, SOLUTION
  Info: Ignoring the following screen output fields:
  RMS_RES[0], RMS_RES[1], RMS_RES[2], RMS_RES[3], RMS_RES[4], AVG_CFL[0], DRAG[0], LIFT[0]
Screen output fields: OUTER_ITER
  Info: Ignoring the following history output groups:
  RMS_RES[0], RMS_RES[1], RMS_RES[2], RMS_RES[3], RMS_RES[4], AVG_CFL[0], DRAG[0], LIFT[0]
History output group(s): OUTER_ITER
Ignoring Convergence Field(s): RMS_ADJ_DENSITY[0] 
Warning: No (valid) fields chosen for convergence monitoring. Convergence monitoring inactive.
Warning: No (valid) fields chosen for time convergence monitoring. Time convergence monitoring inactive.
|Paraview                           |volume_sens_0.vtu                  |
|                                   |                     (201.969 MB/s)|
|Paraview surface                   |surface_sens_0.vtu                 |
|                                   |                     (4.88609 MB/s)|

---------- Start gradient evaluation using sensitivity information ----------

Evaluate functional gradient using Algorithmic Differentiation (ZONE 0).
1 Free Form Deformation boxes.
1 Free Form Deformation nested levels.
FFD box tag: Wall. FFD box level: 0. Degrees: 20, 10.
FFD Blending using Bezier Curves.
Number of parent boxes: 0. Number of child boxes: 0.
Corner points: 4. Control points: 462. Surface points: 87.

----------------- FFD technique (parametric -> cartesian) ---------------
Checking FFD box dimension.
Checking FFD box intersections with the solid surfaces.
The FFD planes i=0, i=20, j=0, intersect solid surfaces.
SU2 is fixing the planes to maintain a continuous 2nd order derivative.
Update cartesian coord        | FFD box: Wall. Max Diff: 4.12312e-10.

Design variable (FFD_CONTROL_POINT_2D) number 0.
CUSTOM_OBJFUNC gradient : 0
-------------------------------------------------------------------------

Design variable (FFD_CONTROL_POINT_2D) number 1.
CUSTOM_OBJFUNC gradient : 0
-------------------------------------------------------------------------

Design variable (FFD_CONTROL_POINT_2D) number 2.
CUSTOM_OBJFUNC gradient : 0
-------------------------------------------------------------------------

Design variable (FFD_CONTROL_POINT_2D) number 3.
CUSTOM_OBJFUNC gradient : 0
-------------------------------------------------------------------------

Design variable (FFD_CONTROL_POINT_2D) number 4.
CUSTOM_OBJFUNC gradient : 0
-------------------------------------------------------------------------

Design variable (FFD_CONTROL_POINT_2D) number 5.
CUSTOM_OBJFUNC gradient : 0
-------------------------------------------------------------------------

Design variable (FFD_CONTROL_POINT_2D) number 6.
CUSTOM_OBJFUNC gradient : 0
-------------------------------------------------------------------------

Design variable (FFD_CONTROL_POINT_2D) number 7.
CUSTOM_OBJFUNC gradient : 0
-------------------------------------------------------------------------

Design variable (FFD_CONTROL_POINT_2D) number 8.
CUSTOM_OBJFUNC gradient : 0
-------------------------------------------------------------------------

Design variable (FFD_CONTROL_POINT_2D) number 9.
CUSTOM_OBJFUNC gradient : 0
-------------------------------------------------------------------------

Design variable (FFD_CONTROL_POINT_2D) number 10.
CUSTOM_OBJFUNC gradient : 0
-------------------------------------------------------------------------

Design variable (FFD_CONTROL_POINT_2D) number 11.
CUSTOM_OBJFUNC gradient : 0
-------------------------------------------------------------------------

Design variable (FFD_CONTROL_POINT_2D) number 12.
CUSTOM_OBJFUNC gradient : 0
-------------------------------------------------------------------------

Design variable (FFD_CONTROL_POINT_2D) number 13.
CUSTOM_OBJFUNC gradient : 0
-------------------------------------------------------------------------

Design variable (FFD_CONTROL_POINT_2D) number 14.
CUSTOM_OBJFUNC gradient : 0
-------------------------------------------------------------------------

Design variable (FFD_CONTROL_POINT_2D) number 15.
CUSTOM_OBJFUNC gradient : 0
-------------------------------------------------------------------------

Design variable (FFD_CONTROL_POINT_2D) number 16.
CUSTOM_OBJFUNC gradient : 0
-------------------------------------------------------------------------

Design variable (FFD_CONTROL_POINT_2D) number 17.
CUSTOM_OBJFUNC gradient : 0
-------------------------------------------------------------------------

Design variable (FFD_CONTROL_POINT_2D) number 18.
CUSTOM_OBJFUNC gradient : 0
-------------------------------------------------------------------------

Design variable (FFD_CONTROL_POINT_2D) number 19.
CUSTOM_OBJFUNC gradient : 0
-------------------------------------------------------------------------

Design variable (FFD_CONTROL_POINT_2D) number 20.
CUSTOM_OBJFUNC gradient : 0
-------------------------------------------------------------------------

Design variable (FFD_CONTROL_POINT_2D) number 21.
CUSTOM_OBJFUNC gradient : 0
-------------------------------------------------------------------------

Design variable (FFD_CONTROL_POINT_2D) number 22.
CUSTOM_OBJFUNC gradient : 0
-------------------------------------------------------------------------

Design variable (FFD_CONTROL_POINT_2D) number 23.
CUSTOM_OBJFUNC gradient : 0
-------------------------------------------------------------------------

Design variable (FFD_CONTROL_POINT_2D) number 24.
CUSTOM_OBJFUNC gradient : 0
-------------------------------------------------------------------------

Design variable (FFD_CONTROL_POINT_2D) number 25.
CUSTOM_OBJFUNC gradient : 0
-------------------------------------------------------------------------

Design variable (FFD_CONTROL_POINT_2D) number 26.
CUSTOM_OBJFUNC gradient : 0
-------------------------------------------------------------------------

Design variable (FFD_CONTROL_POINT_2D) number 27.
CUSTOM_OBJFUNC gradient : 0
-------------------------------------------------------------------------

Design variable (FFD_CONTROL_POINT_2D) number 28.
CUSTOM_OBJFUNC gradient : 0
-------------------------------------------------------------------------

Design variable (FFD_CONTROL_POINT_2D) number 29.
CUSTOM_OBJFUNC gradient : 0
-------------------------------------------------------------------------

Design variable (FFD_CONTROL_POINT_2D) number 30.
CUSTOM_OBJFUNC gradient : 0
-------------------------------------------------------------------------

Design variable (FFD_CONTROL_POINT_2D) number 31.
CUSTOM_OBJFUNC gradient : 0
-------------------------------------------------------------------------

Design variable (FFD_CONTROL_POINT_2D) number 32.
CUSTOM_OBJFUNC gradient : 0
-------------------------------------------------------------------------

Design variable (FFD_CONTROL_POINT_2D) number 33.
CUSTOM_OBJFUNC gradient : 0
-------------------------------------------------------------------------

Design variable (FFD_CONTROL_POINT_2D) number 34.
CUSTOM_OBJFUNC gradient : 0
-------------------------------------------------------------------------

Design variable (FFD_CONTROL_POINT_2D) number 35.
CUSTOM_OBJFUNC gradient : 0
-------------------------------------------------------------------------

Design variable (FFD_CONTROL_POINT_2D) number 36.
CUSTOM_OBJFUNC gradient : 0
-------------------------------------------------------------------------

Design variable (FFD_CONTROL_POINT_2D) number 37.
CUSTOM_OBJFUNC gradient : 0
-------------------------------------------------------------------------

Design variable (FFD_CONTROL_POINT_2D) number 38.
CUSTOM_OBJFUNC gradient : 0
-------------------------------------------------------------------------

Design variable (FFD_CONTROL_POINT_2D) number 39.
CUSTOM_OBJFUNC gradient : 0
-------------------------------------------------------------------------

Design variable (FFD_CONTROL_POINT_2D) number 40.
CUSTOM_OBJFUNC gradient : 0
-------------------------------------------------------------------------

Design variable (FFD_CONTROL_POINT_2D) number 41.
CUSTOM_OBJFUNC gradient : 0
-------------------------------------------------------------------------

Design variable (FFD_CONTROL_POINT_2D) number 42.
CUSTOM_OBJFUNC gradient : 0
-------------------------------------------------------------------------

Design variable (FFD_CONTROL_POINT_2D) number 43.
CUSTOM_OBJFUNC gradient : 0
-------------------------------------------------------------------------

Design variable (FFD_CONTROL_POINT_2D) number 44.
CUSTOM_OBJFUNC gradient : 0
-------------------------------------------------------------------------

Design variable (FFD_CONTROL_POINT_2D) number 45.
CUSTOM_OBJFUNC gradient : 0
-------------------------------------------------------------------------

Design variable (FFD_CONTROL_POINT_2D) number 46.
CUSTOM_OBJFUNC gradient : 0
-------------------------------------------------------------------------

Design variable (FFD_CONTROL_POINT_2D) number 47.
CUSTOM_OBJFUNC gradient : 0
-------------------------------------------------------------------------

Design variable (FFD_CONTROL_POINT_2D) number 48.
CUSTOM_OBJFUNC gradient : 0
-------------------------------------------------------------------------

Design variable (FFD_CONTROL_POINT_2D) number 49.
CUSTOM_OBJFUNC gradient : 0
-------------------------------------------------------------------------

Design variable (FFD_CONTROL_POINT_2D) number 50.
CUSTOM_OBJFUNC gradient : 0
-------------------------------------------------------------------------

Design variable (FFD_CONTROL_POINT_2D) number 51.
CUSTOM_OBJFUNC gradient : 0
-------------------------------------------------------------------------

Design variable (FFD_CONTROL_POINT_2D) number 52.
CUSTOM_OBJFUNC gradient : 0
-------------------------------------------------------------------------

Design variable (FFD_CONTROL_POINT_2D) number 53.
CUSTOM_OBJFUNC gradient : 0
-------------------------------------------------------------------------

Design variable (FFD_CONTROL_POINT_2D) number 54.
CUSTOM_OBJFUNC gradient : 0
-------------------------------------------------------------------------

Design variable (FFD_CONTROL_POINT_2D) number 55.
CUSTOM_OBJFUNC gradient : 0
-------------------------------------------------------------------------

Design variable (FFD_CONTROL_POINT_2D) number 56.
CUSTOM_OBJFUNC gradient : 0
-------------------------------------------------------------------------

Design variable (FFD_CONTROL_POINT_2D) number 57.
CUSTOM_OBJFUNC gradient : 0
-------------------------------------------------------------------------

Design variable (FFD_CONTROL_POINT_2D) number 58.
CUSTOM_OBJFUNC gradient : 0
-------------------------------------------------------------------------

Design variable (FFD_CONTROL_POINT_2D) number 59.
CUSTOM_OBJFUNC gradient : 0
-------------------------------------------------------------------------

Design variable (FFD_CONTROL_POINT_2D) number 60.
CUSTOM_OBJFUNC gradient : 0
-------------------------------------------------------------------------

Design variable (FFD_CONTROL_POINT_2D) number 61.
CUSTOM_OBJFUNC gradient : 0
-------------------------------------------------------------------------

Design variable (FFD_CONTROL_POINT_2D) number 62.
CUSTOM_OBJFUNC gradient : 0
-------------------------------------------------------------------------

Design variable (FFD_CONTROL_POINT_2D) number 63.
CUSTOM_OBJFUNC gradient : 0
-------------------------------------------------------------------------

Design variable (FFD_CONTROL_POINT_2D) number 64.
CUSTOM_OBJFUNC gradient : 0
-------------------------------------------------------------------------

Design variable (FFD_CONTROL_POINT_2D) number 65.
CUSTOM_OBJFUNC gradient : 0
-------------------------------------------------------------------------

Design variable (FFD_CONTROL_POINT_2D) number 66.
CUSTOM_OBJFUNC gradient : -0.00388105
-------------------------------------------------------------------------

Design variable (FFD_CONTROL_POINT_2D) number 67.
CUSTOM_OBJFUNC gradient : 0.0268381
-------------------------------------------------------------------------

Design variable (FFD_CONTROL_POINT_2D) number 68.
CUSTOM_OBJFUNC gradient : 0.0338788
-------------------------------------------------------------------------

Design variable (FFD_CONTROL_POINT_2D) number 69.
CUSTOM_OBJFUNC gradient : 0.0235913
-------------------------------------------------------------------------

Design variable (FFD_CONTROL_POINT_2D) number 70.
CUSTOM_OBJFUNC gradient : 0.0101982
-------------------------------------------------------------------------

Design variable (FFD_CONTROL_POINT_2D) number 71.
CUSTOM_OBJFUNC gradient : -0.000171517
-------------------------------------------------------------------------

Design variable (FFD_CONTROL_POINT_2D) number 72.
CUSTOM_OBJFUNC gradient : -0.00788855
-------------------------------------------------------------------------

Design variable (FFD_CONTROL_POINT_2D) number 73.
CUSTOM_OBJFUNC gradient : -0.0133973
-------------------------------------------------------------------------

Design variable (FFD_CONTROL_POINT_2D) number 74.
CUSTOM_OBJFUNC gradient : -0.0145968
-------------------------------------------------------------------------

Design variable (FFD_CONTROL_POINT_2D) number 75.
CUSTOM_OBJFUNC gradient : -0.0090777
-------------------------------------------------------------------------

Design variable (FFD_CONTROL_POINT_2D) number 76.
CUSTOM_OBJFUNC gradient : 0.00176922
-------------------------------------------------------------------------

Design variable (FFD_CONTROL_POINT_2D) number 77.
CUSTOM_OBJFUNC gradient : 0.0116464
-------------------------------------------------------------------------

Design variable (FFD_CONTROL_POINT_2D) number 78.
CUSTOM_OBJFUNC gradient : 0.0136321
-------------------------------------------------------------------------

Design variable (FFD_CONTROL_POINT_2D) number 79.
CUSTOM_OBJFUNC gradient : 0.00616606
-------------------------------------------------------------------------

Design variable (FFD_CONTROL_POINT_2D) number 80.
CUSTOM_OBJFUNC gradient : -0.00510978
-------------------------------------------------------------------------

Design variable (FFD_CONTROL_POINT_2D) number 81.
CUSTOM_OBJFUNC gradient : 0
-------------------------------------------------------------------------

Design variable (FFD_CONTROL_POINT_2D) number 82.
CUSTOM_OBJFUNC gradient : 0
-------------------------------------------------------------------------

Design variable (FFD_CONTROL_POINT_2D) number 83.
CUSTOM_OBJFUNC gradient : 0
-------------------------------------------------------------------------

Design variable (FFD_CONTROL_POINT_2D) number 84.
CUSTOM_OBJFUNC gradient : 0
-------------------------------------------------------------------------

Design variable (FFD_CONTROL_POINT_2D) number 85.
CUSTOM_OBJFUNC gradient : 0
-------------------------------------------------------------------------

Design variable (FFD_CONTROL_POINT_2D) number 86.
CUSTOM_OBJFUNC gradient : 0
-------------------------------------------------------------------------

Design variable (FFD_CONTROL_POINT_2D) number 87.
CUSTOM_OBJFUNC gradient : -0.00679184
-------------------------------------------------------------------------

Design variable (FFD_CONTROL_POINT_2D) number 88.
CUSTOM_OBJFUNC gradient : 0.0469668
-------------------------------------------------------------------------

Design variable (FFD_CONTROL_POINT_2D) number 89.
CUSTOM_OBJFUNC gradient : 0.059288
-------------------------------------------------------------------------

Design variable (FFD_CONTROL_POINT_2D) number 90.
CUSTOM_OBJFUNC gradient : 0.0412848
-------------------------------------------------------------------------

Design variable (FFD_CONTROL_POINT_2D) number 91.
CUSTOM_OBJFUNC gradient : 0.0178468
-------------------------------------------------------------------------

Design variable (FFD_CONTROL_POINT_2D) number 92.
CUSTOM_OBJFUNC gradient : -0.000300154
-------------------------------------------------------------------------

Design variable (FFD_CONTROL_POINT_2D) number 93.
CUSTOM_OBJFUNC gradient : -0.013805
-------------------------------------------------------------------------

Design variable (FFD_CONTROL_POINT_2D) number 94.
CUSTOM_OBJFUNC gradient : -0.0234453
-------------------------------------------------------------------------

Design variable (FFD_CONTROL_POINT_2D) number 95.
CUSTOM_OBJFUNC gradient : -0.0255445
-------------------------------------------------------------------------

Design variable (FFD_CONTROL_POINT_2D) number 96.
CUSTOM_OBJFUNC gradient : -0.015886
-------------------------------------------------------------------------

Design variable (FFD_CONTROL_POINT_2D) number 97.
CUSTOM_OBJFUNC gradient : 0.00309614
-------------------------------------------------------------------------

Design variable (FFD_CONTROL_POINT_2D) number 98.
CUSTOM_OBJFUNC gradient : 0.0203813
-------------------------------------------------------------------------

Design variable (FFD_CONTROL_POINT_2D) number 99.
CUSTOM_OBJFUNC gradient : 0.0238562
-------------------------------------------------------------------------

Design variable (FFD_CONTROL_POINT_2D) number 100.
CUSTOM_OBJFUNC gradient : 0.0107906
-------------------------------------------------------------------------

Design variable (FFD_CONTROL_POINT_2D) number 101.
CUSTOM_OBJFUNC gradient : -0.00894212
-------------------------------------------------------------------------

Design variable (FFD_CONTROL_POINT_2D) number 102.
CUSTOM_OBJFUNC gradient : 0
-------------------------------------------------------------------------

Design variable (FFD_CONTROL_POINT_2D) number 103.
CUSTOM_OBJFUNC gradient : 0
-------------------------------------------------------------------------

Design variable (FFD_CONTROL_POINT_2D) number 104.
CUSTOM_OBJFUNC gradient : 0
-------------------------------------------------------------------------

Design variable (FFD_CONTROL_POINT_2D) number 105.
CUSTOM_OBJFUNC gradient : 0
-------------------------------------------------------------------------

Design variable (FFD_CONTROL_POINT_2D) number 106.
CUSTOM_OBJFUNC gradient : 0
-------------------------------------------------------------------------

Design variable (FFD_CONTROL_POINT_2D) number 107.
CUSTOM_OBJFUNC gradient : 0
-------------------------------------------------------------------------

Design variable (FFD_CONTROL_POINT_2D) number 108.
CUSTOM_OBJFUNC gradient : -0.00815021
-------------------------------------------------------------------------

Design variable (FFD_CONTROL_POINT_2D) number 109.
CUSTOM_OBJFUNC gradient : 0.0563601
-------------------------------------------------------------------------

Design variable (FFD_CONTROL_POINT_2D) number 110.
CUSTOM_OBJFUNC gradient : 0.0711456
-------------------------------------------------------------------------

Design variable (FFD_CONTROL_POINT_2D) number 111.
CUSTOM_OBJFUNC gradient : 0.0495417
-------------------------------------------------------------------------

Design variable (FFD_CONTROL_POINT_2D) number 112.
CUSTOM_OBJFUNC gradient : 0.0214162
-------------------------------------------------------------------------

Design variable (FFD_CONTROL_POINT_2D) number 113.
CUSTOM_OBJFUNC gradient : -0.000360185
-------------------------------------------------------------------------

Design variable (FFD_CONTROL_POINT_2D) number 114.
CUSTOM_OBJFUNC gradient : -0.016566
-------------------------------------------------------------------------

Design variable (FFD_CONTROL_POINT_2D) number 115.
CUSTOM_OBJFUNC gradient : -0.0281343
-------------------------------------------------------------------------

Design variable (FFD_CONTROL_POINT_2D) number 116.
CUSTOM_OBJFUNC gradient : -0.0306534
-------------------------------------------------------------------------

Design variable (FFD_CONTROL_POINT_2D) number 117.
CUSTOM_OBJFUNC gradient : -0.0190632
-------------------------------------------------------------------------

Design variable (FFD_CONTROL_POINT_2D) number 118.
CUSTOM_OBJFUNC gradient : 0.00371537
-------------------------------------------------------------------------

Design variable (FFD_CONTROL_POINT_2D) number 119.
CUSTOM_OBJFUNC gradient : 0.0244575
-------------------------------------------------------------------------

Design variable (FFD_CONTROL_POINT_2D) number 120.
CUSTOM_OBJFUNC gradient : 0.0286275
-------------------------------------------------------------------------

Design variable (FFD_CONTROL_POINT_2D) number 121.
CUSTOM_OBJFUNC gradient : 0.0129487
-------------------------------------------------------------------------

Design variable (FFD_CONTROL_POINT_2D) number 122.
CUSTOM_OBJFUNC gradient : -0.0107305
-------------------------------------------------------------------------

Design variable (FFD_CONTROL_POINT_2D) number 123.
CUSTOM_OBJFUNC gradient : 0
-------------------------------------------------------------------------

Design variable (FFD_CONTROL_POINT_2D) number 124.
CUSTOM_OBJFUNC gradient : 0
-------------------------------------------------------------------------

Design variable (FFD_CONTROL_POINT_2D) number 125.
CUSTOM_OBJFUNC gradient : 0
-------------------------------------------------------------------------

Design variable (FFD_CONTROL_POINT_2D) number 126.
CUSTOM_OBJFUNC gradient : 0
-------------------------------------------------------------------------

Design variable (FFD_CONTROL_POINT_2D) number 127.
CUSTOM_OBJFUNC gradient : 0
-------------------------------------------------------------------------

Design variable (FFD_CONTROL_POINT_2D) number 128.
CUSTOM_OBJFUNC gradient : 0
-------------------------------------------------------------------------

Design variable (FFD_CONTROL_POINT_2D) number 129.
CUSTOM_OBJFUNC gradient : -0.00679184
-------------------------------------------------------------------------

Design variable (FFD_CONTROL_POINT_2D) number 130.
CUSTOM_OBJFUNC gradient : 0.0469668
-------------------------------------------------------------------------

Design variable (FFD_CONTROL_POINT_2D) number 131.
CUSTOM_OBJFUNC gradient : 0.059288
-------------------------------------------------------------------------

Design variable (FFD_CONTROL_POINT_2D) number 132.
CUSTOM_OBJFUNC gradient : 0.0412848
-------------------------------------------------------------------------

Design variable (FFD_CONTROL_POINT_2D) number 133.
CUSTOM_OBJFUNC gradient : 0.0178468
-------------------------------------------------------------------------

Design variable (FFD_CONTROL_POINT_2D) number 134.
CUSTOM_OBJFUNC gradient : -0.000300154
-------------------------------------------------------------------------

Design variable (FFD_CONTROL_POINT_2D) number 135.
CUSTOM_OBJFUNC gradient : -0.013805
-------------------------------------------------------------------------

Design variable (FFD_CONTROL_POINT_2D) number 136.
CUSTOM_OBJFUNC gradient : -0.0234453
-------------------------------------------------------------------------

Design variable (FFD_CONTROL_POINT_2D) number 137.
CUSTOM_OBJFUNC gradient : -0.0255445
-------------------------------------------------------------------------

Design variable (FFD_CONTROL_POINT_2D) number 138.
CUSTOM_OBJFUNC gradient : -0.015886
-------------------------------------------------------------------------

Design variable (FFD_CONTROL_POINT_2D) number 139.
CUSTOM_OBJFUNC gradient : 0.00309614
-------------------------------------------------------------------------

Design variable (FFD_CONTROL_POINT_2D) number 140.
CUSTOM_OBJFUNC gradient : 0.0203813
-------------------------------------------------------------------------

Design variable (FFD_CONTROL_POINT_2D) number 141.
CUSTOM_OBJFUNC gradient : 0.0238562
-------------------------------------------------------------------------

Design variable (FFD_CONTROL_POINT_2D) number 142.
CUSTOM_OBJFUNC gradient : 0.0107906
-------------------------------------------------------------------------

Design variable (FFD_CONTROL_POINT_2D) number 143.
CUSTOM_OBJFUNC gradient : -0.00894212
-------------------------------------------------------------------------

Design variable (FFD_CONTROL_POINT_2D) number 144.
CUSTOM_OBJFUNC gradient : 0
-------------------------------------------------------------------------

Design variable (FFD_CONTROL_POINT_2D) number 145.
CUSTOM_OBJFUNC gradient : 0
-------------------------------------------------------------------------

Design variable (FFD_CONTROL_POINT_2D) number 146.
CUSTOM_OBJFUNC gradient : 0
-------------------------------------------------------------------------

Design variable (FFD_CONTROL_POINT_2D) number 147.
CUSTOM_OBJFUNC gradient : 0
-------------------------------------------------------------------------

Design variable (FFD_CONTROL_POINT_2D) number 148.
CUSTOM_OBJFUNC gradient : 0
-------------------------------------------------------------------------

Design variable (FFD_CONTROL_POINT_2D) number 149.
CUSTOM_OBJFUNC gradient : 0
-------------------------------------------------------------------------

Design variable (FFD_CONTROL_POINT_2D) number 150.
CUSTOM_OBJFUNC gradient : -0.00388105
-------------------------------------------------------------------------

Design variable (FFD_CONTROL_POINT_2D) number 151.
CUSTOM_OBJFUNC gradient : 0.0268381
-------------------------------------------------------------------------

Design variable (FFD_CONTROL_POINT_2D) number 152.
CUSTOM_OBJFUNC gradient : 0.0338788
-------------------------------------------------------------------------

Design variable (FFD_CONTROL_POINT_2D) number 153.
CUSTOM_OBJFUNC gradient : 0.0235913
-------------------------------------------------------------------------

Design variable (FFD_CONTROL_POINT_2D) number 154.
CUSTOM_OBJFUNC gradient : 0.0101982
-------------------------------------------------------------------------

Design variable (FFD_CONTROL_POINT_2D) number 155.
CUSTOM_OBJFUNC gradient : -0.000171517
-------------------------------------------------------------------------

Design variable (FFD_CONTROL_POINT_2D) number 156.
CUSTOM_OBJFUNC gradient : -0.00788855
-------------------------------------------------------------------------

Design variable (FFD_CONTROL_POINT_2D) number 157.
CUSTOM_OBJFUNC gradient : -0.0133973
-------------------------------------------------------------------------

Design variable (FFD_CONTROL_POINT_2D) number 158.
CUSTOM_OBJFUNC gradient : -0.0145968
-------------------------------------------------------------------------

Design variable (FFD_CONTROL_POINT_2D) number 159.
CUSTOM_OBJFUNC gradient : -0.0090777
-------------------------------------------------------------------------

Design variable (FFD_CONTROL_POINT_2D) number 160.
CUSTOM_OBJFUNC gradient : 0.00176922
-------------------------------------------------------------------------

Design variable (FFD_CONTROL_POINT_2D) number 161.
CUSTOM_OBJFUNC gradient : 0.0116464
-------------------------------------------------------------------------

Design variable (FFD_CONTROL_POINT_2D) number 162.
CUSTOM_OBJFUNC gradient : 0.0136321
-------------------------------------------------------------------------

Design variable (FFD_CONTROL_POINT_2D) number 163.
CUSTOM_OBJFUNC gradient : 0.00616606
-------------------------------------------------------------------------

Design variable (FFD_CONTROL_POINT_2D) number 164.
CUSTOM_OBJFUNC gradient : -0.00510978
-------------------------------------------------------------------------

Design variable (FFD_CONTROL_POINT_2D) number 165.
CUSTOM_OBJFUNC gradient : 0
-------------------------------------------------------------------------

Design variable (FFD_CONTROL_POINT_2D) number 166.
CUSTOM_OBJFUNC gradient : 0
-------------------------------------------------------------------------

Design variable (FFD_CONTROL_POINT_2D) number 167.
CUSTOM_OBJFUNC gradient : 0
-------------------------------------------------------------------------

Design variable (FFD_CONTROL_POINT_2D) number 168.
CUSTOM_OBJFUNC gradient : 0
-------------------------------------------------------------------------

Design variable (FFD_CONTROL_POINT_2D) number 169.
CUSTOM_OBJFUNC gradient : 0
-------------------------------------------------------------------------

Design variable (FFD_CONTROL_POINT_2D) number 170.
CUSTOM_OBJFUNC gradient : 0
-------------------------------------------------------------------------

Design variable (FFD_CONTROL_POINT_2D) number 171.
CUSTOM_OBJFUNC gradient : -0.00145539
-------------------------------------------------------------------------

Design variable (FFD_CONTROL_POINT_2D) number 172.
CUSTOM_OBJFUNC gradient : 0.0100643
-------------------------------------------------------------------------

Design variable (FFD_CONTROL_POINT_2D) number 173.
CUSTOM_OBJFUNC gradient : 0.0127046
-------------------------------------------------------------------------

Design variable (FFD_CONTROL_POINT_2D) number 174.
CUSTOM_OBJFUNC gradient : 0.00884674
-------------------------------------------------------------------------

Design variable (FFD_CONTROL_POINT_2D) number 175.
CUSTOM_OBJFUNC gradient : 0.00382431
-------------------------------------------------------------------------

Design variable (FFD_CONTROL_POINT_2D) number 176.
CUSTOM_OBJFUNC gradient : -6.43188e-05
-------------------------------------------------------------------------

Design variable (FFD_CONTROL_POINT_2D) number 177.
CUSTOM_OBJFUNC gradient : -0.00295821
-------------------------------------------------------------------------

Design variable (FFD_CONTROL_POINT_2D) number 178.
CUSTOM_OBJFUNC gradient : -0.00502399
-------------------------------------------------------------------------

Design variable (FFD_CONTROL_POINT_2D) number 179.
CUSTOM_OBJFUNC gradient : -0.00547382
-------------------------------------------------------------------------

Design variable (FFD_CONTROL_POINT_2D) number 180.
CUSTOM_OBJFUNC gradient : -0.00340414
-------------------------------------------------------------------------

Design variable (FFD_CONTROL_POINT_2D) number 181.
CUSTOM_OBJFUNC gradient : 0.000663458
-------------------------------------------------------------------------

Design variable (FFD_CONTROL_POINT_2D) number 182.
CUSTOM_OBJFUNC gradient : 0.00436742
-------------------------------------------------------------------------

Design variable (FFD_CONTROL_POINT_2D) number 183.
CUSTOM_OBJFUNC gradient : 0.00511205
-------------------------------------------------------------------------

Design variable (FFD_CONTROL_POINT_2D) number 184.
CUSTOM_OBJFUNC gradient : 0.00231227
-------------------------------------------------------------------------

Design variable (FFD_CONTROL_POINT_2D) number 185.
CUSTOM_OBJFUNC gradient : -0.00191617
-------------------------------------------------------------------------

Design variable (FFD_CONTROL_POINT_2D) number 186.
CUSTOM_OBJFUNC gradient : 0
-------------------------------------------------------------------------

Design variable (FFD_CONTROL_POINT_2D) number 187.
CUSTOM_OBJFUNC gradient : 0
-------------------------------------------------------------------------

Design variable (FFD_CONTROL_POINT_2D) number 188.
CUSTOM_OBJFUNC gradient : 0
-------------------------------------------------------------------------

Design variable (FFD_CONTROL_POINT_2D) number 189.
CUSTOM_OBJFUNC gradient : 0
-------------------------------------------------------------------------

Design variable (FFD_CONTROL_POINT_2D) number 190.
CUSTOM_OBJFUNC gradient : 0
-------------------------------------------------------------------------

Design variable (FFD_CONTROL_POINT_2D) number 191.
CUSTOM_OBJFUNC gradient : 0
-------------------------------------------------------------------------

Design variable (FFD_CONTROL_POINT_2D) number 192.
CUSTOM_OBJFUNC gradient : -0.000323421
-------------------------------------------------------------------------

Design variable (FFD_CONTROL_POINT_2D) number 193.
CUSTOM_OBJFUNC gradient : 0.00223651
-------------------------------------------------------------------------

Design variable (FFD_CONTROL_POINT_2D) number 194.
CUSTOM_OBJFUNC gradient : 0.00282324
-------------------------------------------------------------------------

Design variable (FFD_CONTROL_POINT_2D) number 195.
CUSTOM_OBJFUNC gradient : 0.00196594
-------------------------------------------------------------------------

Design variable (FFD_CONTROL_POINT_2D) number 196.
CUSTOM_OBJFUNC gradient : 0.000849848
-------------------------------------------------------------------------

Design variable (FFD_CONTROL_POINT_2D) number 197.
CUSTOM_OBJFUNC gradient : -1.42931e-05
-------------------------------------------------------------------------

Design variable (FFD_CONTROL_POINT_2D) number 198.
CUSTOM_OBJFUNC gradient : -0.000657379
-------------------------------------------------------------------------

Design variable (FFD_CONTROL_POINT_2D) number 199.
CUSTOM_OBJFUNC gradient : -0.00111644
-------------------------------------------------------------------------

Design variable (FFD_CONTROL_POINT_2D) number 200.
CUSTOM_OBJFUNC gradient : -0.0012164
-------------------------------------------------------------------------

Design variable (FFD_CONTROL_POINT_2D) number 201.
CUSTOM_OBJFUNC gradient : -0.000756475
-------------------------------------------------------------------------

Design variable (FFD_CONTROL_POINT_2D) number 202.
CUSTOM_OBJFUNC gradient : 0.000147435
-------------------------------------------------------------------------

Design variable (FFD_CONTROL_POINT_2D) number 203.
CUSTOM_OBJFUNC gradient : 0.000970537
-------------------------------------------------------------------------

Design variable (FFD_CONTROL_POINT_2D) number 204.
CUSTOM_OBJFUNC gradient : 0.00113601
-------------------------------------------------------------------------

Design variable (FFD_CONTROL_POINT_2D) number 205.
CUSTOM_OBJFUNC gradient : 0.000513838
-------------------------------------------------------------------------

Design variable (FFD_CONTROL_POINT_2D) number 206.
CUSTOM_OBJFUNC gradient : -0.000425815
-------------------------------------------------------------------------

Design variable (FFD_CONTROL_POINT_2D) number 207.
CUSTOM_OBJFUNC gradient : 0
-------------------------------------------------------------------------

Design variable (FFD_CONTROL_POINT_2D) number 208.
CUSTOM_OBJFUNC gradient : 0
-------------------------------------------------------------------------

Design variable (FFD_CONTROL_POINT_2D) number 209.
CUSTOM_OBJFUNC gradient : 0
-------------------------------------------------------------------------

Design variable (FFD_CONTROL_POINT_2D) number 210.
CUSTOM_OBJFUNC gradient : 0
-------------------------------------------------------------------------

Design variable (FFD_CONTROL_POINT_2D) number 211.
CUSTOM_OBJFUNC gradient : 0
-------------------------------------------------------------------------

Design variable (FFD_CONTROL_POINT_2D) number 212.
CUSTOM_OBJFUNC gradient : 0
-------------------------------------------------------------------------

Design variable (FFD_CONTROL_POINT_2D) number 213.
CUSTOM_OBJFUNC gradient : -3.23421e-05
-------------------------------------------------------------------------

Design variable (FFD_CONTROL_POINT_2D) number 214.
CUSTOM_OBJFUNC gradient : 0.000223651
-------------------------------------------------------------------------

Design variable (FFD_CONTROL_POINT_2D) number 215.
CUSTOM_OBJFUNC gradient : 0.000282324
-------------------------------------------------------------------------

Design variable (FFD_CONTROL_POINT_2D) number 216.
CUSTOM_OBJFUNC gradient : 0.000196594
-------------------------------------------------------------------------

Design variable (FFD_CONTROL_POINT_2D) number 217.
CUSTOM_OBJFUNC gradient : 8.49848e-05
-------------------------------------------------------------------------

Design variable (FFD_CONTROL_POINT_2D) number 218.
CUSTOM_OBJFUNC gradient : -1.42931e-06
-------------------------------------------------------------------------

Design variable (FFD_CONTROL_POINT_2D) number 219.
CUSTOM_OBJFUNC gradient : -6.57379e-05
-------------------------------------------------------------------------

Design variable (FFD_CONTROL_POINT_2D) number 220.
CUSTOM_OBJFUNC gradient : -0.000111644
-------------------------------------------------------------------------

Design variable (FFD_CONTROL_POINT_2D) number 221.
CUSTOM_OBJFUNC gradient : -0.00012164
-------------------------------------------------------------------------

Design variable (FFD_CONTROL_POINT_2D) number 222.
CUSTOM_OBJFUNC gradient : -7.56475e-05
-------------------------------------------------------------------------

Design variable (FFD_CONTROL_POINT_2D) number 223.
CUSTOM_OBJFUNC gradient : 1.47435e-05
-------------------------------------------------------------------------

Design variable (FFD_CONTROL_POINT_2D) number 224.
CUSTOM_OBJFUNC gradient : 9.70537e-05
-------------------------------------------------------------------------

Design variable (FFD_CONTROL_POINT_2D) number 225.
CUSTOM_OBJFUNC gradient : 0.000113601
-------------------------------------------------------------------------

Design variable (FFD_CONTROL_POINT_2D) number 226.
CUSTOM_OBJFUNC gradient : 5.13838e-05
-------------------------------------------------------------------------

Design variable (FFD_CONTROL_POINT_2D) number 227.
CUSTOM_OBJFUNC gradient : -4.25815e-05
-------------------------------------------------------------------------

Design variable (FFD_CONTROL_POINT_2D) number 228.
CUSTOM_OBJFUNC gradient : 0
-------------------------------------------------------------------------

Design variable (FFD_CONTROL_POINT_2D) number 229.
CUSTOM_OBJFUNC gradient : 0
-------------------------------------------------------------------------

Design variable (FFD_CONTROL_POINT_2D) number 230.
CUSTOM_OBJFUNC gradient : 0
-------------------------------------------------------------------------

Design variable (FFD_CONTROL_POINT_2D) number 231.
CUSTOM_OBJFUNC gradient : 0
-------------------------------------------------------------------------

Design variable (FFD_CONTROL_POINT_2D) number 232.
CUSTOM_OBJFUNC gradient : 0
-------------------------------------------------------------------------

Design variable (FFD_CONTROL_POINT_2D) number 233.
CUSTOM_OBJFUNC gradient : 0
-------------------------------------------------------------------------

Design variable (FFD_CONTROL_POINT_2D) number 234.
CUSTOM_OBJFUNC gradient : 0
-------------------------------------------------------------------------

Design variable (FFD_CONTROL_POINT_2D) number 235.
CUSTOM_OBJFUNC gradient : 0
-------------------------------------------------------------------------

Design variable (FFD_CONTROL_POINT_2D) number 236.
CUSTOM_OBJFUNC gradient : 0
-------------------------------------------------------------------------

Design variable (FFD_CONTROL_POINT_2D) number 237.
CUSTOM_OBJFUNC gradient : 0
-------------------------------------------------------------------------

Design variable (FFD_CONTROL_POINT_2D) number 238.
CUSTOM_OBJFUNC gradient : 0
-------------------------------------------------------------------------

Design variable (FFD_CONTROL_POINT_2D) number 239.
CUSTOM_OBJFUNC gradient : 0
-------------------------------------------------------------------------

Design variable (FFD_CONTROL_POINT_2D) number 240.
CUSTOM_OBJFUNC gradient : 0
-------------------------------------------------------------------------

Design variable (FFD_CONTROL_POINT_2D) number 241.
CUSTOM_OBJFUNC gradient : 0
-------------------------------------------------------------------------

Design variable (FFD_CONTROL_POINT_2D) number 242.
CUSTOM_OBJFUNC gradient : 0
-------------------------------------------------------------------------

Design variable (FFD_CONTROL_POINT_2D) number 243.
CUSTOM_OBJFUNC gradient : 0
-------------------------------------------------------------------------

Design variable (FFD_CONTROL_POINT_2D) number 244.
CUSTOM_OBJFUNC gradient : 0
-------------------------------------------------------------------------

Design variable (FFD_CONTROL_POINT_2D) number 245.
CUSTOM_OBJFUNC gradient : 0
-------------------------------------------------------------------------

Design variable (FFD_CONTROL_POINT_2D) number 246.
CUSTOM_OBJFUNC gradient : 0
-------------------------------------------------------------------------

Design variable (FFD_CONTROL_POINT_2D) number 247.
CUSTOM_OBJFUNC gradient : 0
-------------------------------------------------------------------------

Design variable (FFD_CONTROL_POINT_2D) number 248.
CUSTOM_OBJFUNC gradient : 0
-------------------------------------------------------------------------

Design variable (FFD_CONTROL_POINT_2D) number 249.
CUSTOM_OBJFUNC gradient : 0
-------------------------------------------------------------------------

Design variable (FFD_CONTROL_POINT_2D) number 250.
CUSTOM_OBJFUNC gradient : 0
-------------------------------------------------------------------------

Design variable (FFD_CONTROL_POINT_2D) number 251.
CUSTOM_OBJFUNC gradient : 0
-------------------------------------------------------------------------

Design variable (FFD_CONTROL_POINT_2D) number 252.
CUSTOM_OBJFUNC gradient : 0
-------------------------------------------------------------------------

Design variable (FFD_CONTROL_POINT_2D) number 253.
CUSTOM_OBJFUNC gradient : 0
-------------------------------------------------------------------------

Design variable (FFD_CONTROL_POINT_2D) number 254.
CUSTOM_OBJFUNC gradient : 0
-------------------------------------------------------------------------

Design variable (FFD_CONTROL_POINT_2D) number 255.
CUSTOM_OBJFUNC gradient : 0
-------------------------------------------------------------------------

Design variable (FFD_CONTROL_POINT_2D) number 256.
CUSTOM_OBJFUNC gradient : 0
-------------------------------------------------------------------------

Design variable (FFD_CONTROL_POINT_2D) number 257.
CUSTOM_OBJFUNC gradient : 0
-------------------------------------------------------------------------

Design variable (FFD_CONTROL_POINT_2D) number 258.
CUSTOM_OBJFUNC gradient : 0
-------------------------------------------------------------------------

Design variable (FFD_CONTROL_POINT_2D) number 259.
CUSTOM_OBJFUNC gradient : 0
-------------------------------------------------------------------------

Design variable (FFD_CONTROL_POINT_2D) number 260.
CUSTOM_OBJFUNC gradient : 0
-------------------------------------------------------------------------

Design variable (FFD_CONTROL_POINT_2D) number 261.
CUSTOM_OBJFUNC gradient : 0
-------------------------------------------------------------------------

Design variable (FFD_CONTROL_POINT_2D) number 262.
CUSTOM_OBJFUNC gradient : 0
-------------------------------------------------------------------------

Design variable (FFD_CONTROL_POINT_2D) number 263.
CUSTOM_OBJFUNC gradient : 0
-------------------------------------------------------------------------

Design variable (FFD_CONTROL_POINT_2D) number 264.
CUSTOM_OBJFUNC gradient : 0
-------------------------------------------------------------------------

Design variable (FFD_CONTROL_POINT_2D) number 265.
CUSTOM_OBJFUNC gradient : 0
-------------------------------------------------------------------------

Design variable (FFD_CONTROL_POINT_2D) number 266.
CUSTOM_OBJFUNC gradient : 0
-------------------------------------------------------------------------

Design variable (FFD_CONTROL_POINT_2D) number 267.
CUSTOM_OBJFUNC gradient : 0
-------------------------------------------------------------------------

Design variable (FFD_CONTROL_POINT_2D) number 268.
CUSTOM_OBJFUNC gradient : 0
-------------------------------------------------------------------------

Design variable (FFD_CONTROL_POINT_2D) number 269.
CUSTOM_OBJFUNC gradient : 0
-------------------------------------------------------------------------

Design variable (FFD_CONTROL_POINT_2D) number 270.
CUSTOM_OBJFUNC gradient : 0
-------------------------------------------------------------------------

Design variable (FFD_CONTROL_POINT_2D) number 271.
CUSTOM_OBJFUNC gradient : 0
-------------------------------------------------------------------------

Design variable (FFD_CONTROL_POINT_2D) number 272.
CUSTOM_OBJFUNC gradient : 0
-------------------------------------------------------------------------

Design variable (FFD_CONTROL_POINT_2D) number 273.
CUSTOM_OBJFUNC gradient : 0
-------------------------------------------------------------------------

Design variable (FFD_CONTROL_POINT_2D) number 274.
CUSTOM_OBJFUNC gradient : 0
-------------------------------------------------------------------------

Design variable (FFD_CONTROL_POINT_2D) number 275.
CUSTOM_OBJFUNC gradient : 0
-------------------------------------------------------------------------

Design variable (FFD_CONTROL_POINT_2D) number 276.
CUSTOM_OBJFUNC gradient : 0
-------------------------------------------------------------------------

Design variable (FFD_CONTROL_POINT_2D) number 277.
CUSTOM_OBJFUNC gradient : 0
-------------------------------------------------------------------------

Design variable (FFD_CONTROL_POINT_2D) number 278.
CUSTOM_OBJFUNC gradient : 0
[...]
-------------------------------------------------------------------------

Design variable (FFD_CONTROL_POINT_2D) number 340.
CUSTOM_OBJFUNC gradient : -0.22427
-------------------------------------------------------------------------

Design variable (FFD_CONTROL_POINT_2D) number 341.
CUSTOM_OBJFUNC gradient : -0.283165
-------------------------------------------------------------------------

Design variable (FFD_CONTROL_POINT_2D) number 342.
CUSTOM_OBJFUNC gradient : -0.196476
-------------------------------------------------------------------------

Design variable (FFD_CONTROL_POINT_2D) number 343.
CUSTOM_OBJFUNC gradient : -0.0835839
-------------------------------------------------------------------------

Design variable (FFD_CONTROL_POINT_2D) number 344.
CUSTOM_OBJFUNC gradient : 0.00403346
-------------------------------------------------------------------------

Design variable (FFD_CONTROL_POINT_2D) number 345.
CUSTOM_OBJFUNC gradient : 0.0694477
-------------------------------------------------------------------------

Design variable (FFD_CONTROL_POINT_2D) number 346.
CUSTOM_OBJFUNC gradient : 0.116339
-------------------------------------------------------------------------

Design variable (FFD_CONTROL_POINT_2D) number 347.
CUSTOM_OBJFUNC gradient : 0.12702
-------------------------------------------------------------------------

Design variable (FFD_CONTROL_POINT_2D) number 348.
CUSTOM_OBJFUNC gradient : 0.0812313
-------------------------------------------------------------------------

Design variable (FFD_CONTROL_POINT_2D) number 349.
CUSTOM_OBJFUNC gradient : -0.00934692
-------------------------------------------------------------------------

Design variable (FFD_CONTROL_POINT_2D) number 350.
CUSTOM_OBJFUNC gradient : -0.0918085
-------------------------------------------------------------------------

Design variable (FFD_CONTROL_POINT_2D) number 351.
CUSTOM_OBJFUNC gradient : -0.107997
-------------------------------------------------------------------------

Design variable (FFD_CONTROL_POINT_2D) number 352.
CUSTOM_OBJFUNC gradient : -0.044757
-------------------------------------------------------------------------

Design variable (FFD_CONTROL_POINT_2D) number 353.
CUSTOM_OBJFUNC gradient : 0.0508582
-------------------------------------------------------------------------

Design variable (FFD_CONTROL_POINT_2D) number 354.
CUSTOM_OBJFUNC gradient : 0
-------------------------------------------------------------------------

Design variable (FFD_CONTROL_POINT_2D) number 355.
CUSTOM_OBJFUNC gradient : 0
-------------------------------------------------------------------------

Design variable (FFD_CONTROL_POINT_2D) number 356.
CUSTOM_OBJFUNC gradient : 0
-------------------------------------------------------------------------

Design variable (FFD_CONTROL_POINT_2D) number 357.
CUSTOM_OBJFUNC gradient : 0
-------------------------------------------------------------------------

Design variable (FFD_CONTROL_POINT_2D) number 358.
CUSTOM_OBJFUNC gradient : 0
-------------------------------------------------------------------------

Design variable (FFD_CONTROL_POINT_2D) number 359.
CUSTOM_OBJFUNC gradient : 0
-------------------------------------------------------------------------

Design variable (FFD_CONTROL_POINT_2D) number 360.
CUSTOM_OBJFUNC gradient : 0.0281026
-------------------------------------------------------------------------

Design variable (FFD_CONTROL_POINT_2D) number 361.
CUSTOM_OBJFUNC gradient : -0.186892
-------------------------------------------------------------------------

Design variable (FFD_CONTROL_POINT_2D) number 362.
CUSTOM_OBJFUNC gradient : -0.235971
-------------------------------------------------------------------------

Design variable (FFD_CONTROL_POINT_2D) number 363.
CUSTOM_OBJFUNC gradient : -0.16373
-------------------------------------------------------------------------

Design variable (FFD_CONTROL_POINT_2D) number 364.
CUSTOM_OBJFUNC gradient : -0.0696532
-------------------------------------------------------------------------

Design variable (FFD_CONTROL_POINT_2D) number 365.
CUSTOM_OBJFUNC gradient : 0.00336122
-------------------------------------------------------------------------

Design variable (FFD_CONTROL_POINT_2D) number 366.
CUSTOM_OBJFUNC gradient : 0.0578731
-------------------------------------------------------------------------

Design variable (FFD_CONTROL_POINT_2D) number 367.
CUSTOM_OBJFUNC gradient : 0.0969494
-------------------------------------------------------------------------

Design variable (FFD_CONTROL_POINT_2D) number 368.
CUSTOM_OBJFUNC gradient : 0.10585
-------------------------------------------------------------------------

Design variable (FFD_CONTROL_POINT_2D) number 369.
CUSTOM_OBJFUNC gradient : 0.0676928
-------------------------------------------------------------------------

Design variable (FFD_CONTROL_POINT_2D) number 370.
CUSTOM_OBJFUNC gradient : -0.0077891
-------------------------------------------------------------------------

Design variable (FFD_CONTROL_POINT_2D) number 371.
CUSTOM_OBJFUNC gradient : -0.0765071
-------------------------------------------------------------------------

Design variable (FFD_CONTROL_POINT_2D) number 372.
CUSTOM_OBJFUNC gradient : -0.0899976
-------------------------------------------------------------------------

Design variable (FFD_CONTROL_POINT_2D) number 373.
CUSTOM_OBJFUNC gradient : -0.0372975
-------------------------------------------------------------------------

Design variable (FFD_CONTROL_POINT_2D) number 374.
CUSTOM_OBJFUNC gradient : 0.0423818
-------------------------------------------------------------------------

Design variable (FFD_CONTROL_POINT_2D) number 375.
CUSTOM_OBJFUNC gradient : 0
-------------------------------------------------------------------------

Design variable (FFD_CONTROL_POINT_2D) number 376.
CUSTOM_OBJFUNC gradient : 0
-------------------------------------------------------------------------

Design variable (FFD_CONTROL_POINT_2D) number 377.
CUSTOM_OBJFUNC gradient : 0
-------------------------------------------------------------------------

Design variable (FFD_CONTROL_POINT_2D) number 378.
CUSTOM_OBJFUNC gradient : 0
-------------------------------------------------------------------------

Design variable (FFD_CONTROL_POINT_2D) number 379.
CUSTOM_OBJFUNC gradient : 0
-------------------------------------------------------------------------

Design variable (FFD_CONTROL_POINT_2D) number 380.
CUSTOM_OBJFUNC gradient : 0
-------------------------------------------------------------------------

Design variable (FFD_CONTROL_POINT_2D) number 381.
CUSTOM_OBJFUNC gradient : 0.0160586
-------------------------------------------------------------------------

Design variable (FFD_CONTROL_POINT_2D) number 382.
CUSTOM_OBJFUNC gradient : -0.106795
-------------------------------------------------------------------------

Design variable (FFD_CONTROL_POINT_2D) number 383.
CUSTOM_OBJFUNC gradient : -0.134841
-------------------------------------------------------------------------

Design variable (FFD_CONTROL_POINT_2D) number 384.
CUSTOM_OBJFUNC gradient : -0.09356
-------------------------------------------------------------------------

Design variable (FFD_CONTROL_POINT_2D) number 385.
CUSTOM_OBJFUNC gradient : -0.0398019
-------------------------------------------------------------------------

Design variable (FFD_CONTROL_POINT_2D) number 386.
CUSTOM_OBJFUNC gradient : 0.0019207
-------------------------------------------------------------------------

Design variable (FFD_CONTROL_POINT_2D) number 387.
CUSTOM_OBJFUNC gradient : 0.0330703
-------------------------------------------------------------------------

Design variable (FFD_CONTROL_POINT_2D) number 388.
CUSTOM_OBJFUNC gradient : 0.0553996
-------------------------------------------------------------------------

Design variable (FFD_CONTROL_POINT_2D) number 389.
CUSTOM_OBJFUNC gradient : 0.0604859
-------------------------------------------------------------------------

Design variable (FFD_CONTROL_POINT_2D) number 390.
CUSTOM_OBJFUNC gradient : 0.0386816
-------------------------------------------------------------------------

Design variable (FFD_CONTROL_POINT_2D) number 391.
CUSTOM_OBJFUNC gradient : -0.00445091
-------------------------------------------------------------------------

Design variable (FFD_CONTROL_POINT_2D) number 392.
CUSTOM_OBJFUNC gradient : -0.0437184
-------------------------------------------------------------------------

Design variable (FFD_CONTROL_POINT_2D) number 393.
CUSTOM_OBJFUNC gradient : -0.0514272
-------------------------------------------------------------------------

Design variable (FFD_CONTROL_POINT_2D) number 394.
CUSTOM_OBJFUNC gradient : -0.0213129
-------------------------------------------------------------------------

Design variable (FFD_CONTROL_POINT_2D) number 395.
CUSTOM_OBJFUNC gradient : 0.0242182
-------------------------------------------------------------------------

Design variable (FFD_CONTROL_POINT_2D) number 396.
CUSTOM_OBJFUNC gradient : 0
-------------------------------------------------------------------------

Design variable (FFD_CONTROL_POINT_2D) number 397.
CUSTOM_OBJFUNC gradient : 0
-------------------------------------------------------------------------

Design variable (FFD_CONTROL_POINT_2D) number 398.
CUSTOM_OBJFUNC gradient : 0
-------------------------------------------------------------------------

Design variable (FFD_CONTROL_POINT_2D) number 399.
CUSTOM_OBJFUNC gradient : 0
-------------------------------------------------------------------------

Design variable (FFD_CONTROL_POINT_2D) number 400.
CUSTOM_OBJFUNC gradient : 0
-------------------------------------------------------------------------

Design variable (FFD_CONTROL_POINT_2D) number 401.
CUSTOM_OBJFUNC gradient : 0
-------------------------------------------------------------------------

Design variable (FFD_CONTROL_POINT_2D) number 402.
CUSTOM_OBJFUNC gradient : 0.00602198
-------------------------------------------------------------------------

Design variable (FFD_CONTROL_POINT_2D) number 403.
CUSTOM_OBJFUNC gradient : -0.0400482
-------------------------------------------------------------------------

Design variable (FFD_CONTROL_POINT_2D) number 404.
CUSTOM_OBJFUNC gradient : -0.0505653
-------------------------------------------------------------------------

Design variable (FFD_CONTROL_POINT_2D) number 405.
CUSTOM_OBJFUNC gradient : -0.035085
-------------------------------------------------------------------------

Design variable (FFD_CONTROL_POINT_2D) number 406.
CUSTOM_OBJFUNC gradient : -0.0149257
-------------------------------------------------------------------------

Design variable (FFD_CONTROL_POINT_2D) number 407.
CUSTOM_OBJFUNC gradient : 0.000720261
-------------------------------------------------------------------------

Design variable (FFD_CONTROL_POINT_2D) number 408.
CUSTOM_OBJFUNC gradient : 0.0124014
-------------------------------------------------------------------------

Design variable (FFD_CONTROL_POINT_2D) number 409.
CUSTOM_OBJFUNC gradient : 0.0207749
-------------------------------------------------------------------------

Design variable (FFD_CONTROL_POINT_2D) number 410.
CUSTOM_OBJFUNC gradient : 0.0226822
-------------------------------------------------------------------------

Design variable (FFD_CONTROL_POINT_2D) number 411.
CUSTOM_OBJFUNC gradient : 0.0145056
-------------------------------------------------------------------------

Design variable (FFD_CONTROL_POINT_2D) number 412.
CUSTOM_OBJFUNC gradient : -0.00166909
-------------------------------------------------------------------------

Design variable (FFD_CONTROL_POINT_2D) number 413.
CUSTOM_OBJFUNC gradient : -0.0163944
-------------------------------------------------------------------------

Design variable (FFD_CONTROL_POINT_2D) number 414.
CUSTOM_OBJFUNC gradient : -0.0192852
-------------------------------------------------------------------------

Design variable (FFD_CONTROL_POINT_2D) number 415.
CUSTOM_OBJFUNC gradient : -0.00799232
-------------------------------------------------------------------------

Design variable (FFD_CONTROL_POINT_2D) number 416.
CUSTOM_OBJFUNC gradient : 0.00908182
-------------------------------------------------------------------------

Design variable (FFD_CONTROL_POINT_2D) number 417.
CUSTOM_OBJFUNC gradient : 0
-------------------------------------------------------------------------

Design variable (FFD_CONTROL_POINT_2D) number 418.
CUSTOM_OBJFUNC gradient : 0
-------------------------------------------------------------------------

Design variable (FFD_CONTROL_POINT_2D) number 419.
CUSTOM_OBJFUNC gradient : 0
-------------------------------------------------------------------------

Design variable (FFD_CONTROL_POINT_2D) number 420.
CUSTOM_OBJFUNC gradient : 0
-------------------------------------------------------------------------

Design variable (FFD_CONTROL_POINT_2D) number 421.
CUSTOM_OBJFUNC gradient : 0
-------------------------------------------------------------------------

Design variable (FFD_CONTROL_POINT_2D) number 422.
CUSTOM_OBJFUNC gradient : 0
-------------------------------------------------------------------------

Design variable (FFD_CONTROL_POINT_2D) number 423.
CUSTOM_OBJFUNC gradient : 0.00133822
-------------------------------------------------------------------------

Design variable (FFD_CONTROL_POINT_2D) number 424.
CUSTOM_OBJFUNC gradient : -0.0088996
-------------------------------------------------------------------------

Design variable (FFD_CONTROL_POINT_2D) number 425.
CUSTOM_OBJFUNC gradient : -0.0112367
-------------------------------------------------------------------------

Design variable (FFD_CONTROL_POINT_2D) number 426.
CUSTOM_OBJFUNC gradient : -0.00779667
-------------------------------------------------------------------------

Design variable (FFD_CONTROL_POINT_2D) number 427.
CUSTOM_OBJFUNC gradient : -0.00331682
-------------------------------------------------------------------------

Design variable (FFD_CONTROL_POINT_2D) number 428.
CUSTOM_OBJFUNC gradient : 0.000160058
-------------------------------------------------------------------------

Design variable (FFD_CONTROL_POINT_2D) number 429.
CUSTOM_OBJFUNC gradient : 0.00275586
-------------------------------------------------------------------------

Design variable (FFD_CONTROL_POINT_2D) number 430.
CUSTOM_OBJFUNC gradient : 0.00461664
-------------------------------------------------------------------------

Design variable (FFD_CONTROL_POINT_2D) number 431.
CUSTOM_OBJFUNC gradient : 0.00504049
-------------------------------------------------------------------------

Design variable (FFD_CONTROL_POINT_2D) number 432.
CUSTOM_OBJFUNC gradient : 0.00322347
-------------------------------------------------------------------------

Design variable (FFD_CONTROL_POINT_2D) number 433.
CUSTOM_OBJFUNC gradient : -0.00037091
-------------------------------------------------------------------------

Design variable (FFD_CONTROL_POINT_2D) number 434.
CUSTOM_OBJFUNC gradient : -0.0036432
-------------------------------------------------------------------------

Design variable (FFD_CONTROL_POINT_2D) number 435.
CUSTOM_OBJFUNC gradient : -0.0042856
-------------------------------------------------------------------------

Design variable (FFD_CONTROL_POINT_2D) number 436.
CUSTOM_OBJFUNC gradient : -0.00177607
-------------------------------------------------------------------------

Design variable (FFD_CONTROL_POINT_2D) number 437.
CUSTOM_OBJFUNC gradient : 0.00201818
-------------------------------------------------------------------------

Design variable (FFD_CONTROL_POINT_2D) number 438.
CUSTOM_OBJFUNC gradient : 0
-------------------------------------------------------------------------

Design variable (FFD_CONTROL_POINT_2D) number 439.
CUSTOM_OBJFUNC gradient : 0
-------------------------------------------------------------------------

Design variable (FFD_CONTROL_POINT_2D) number 440.
CUSTOM_OBJFUNC gradient : 0
-------------------------------------------------------------------------

Design variable (FFD_CONTROL_POINT_2D) number 441.
CUSTOM_OBJFUNC gradient : 0
-------------------------------------------------------------------------

Design variable (FFD_CONTROL_POINT_2D) number 442.
CUSTOM_OBJFUNC gradient : 0
-------------------------------------------------------------------------

Design variable (FFD_CONTROL_POINT_2D) number 443.
CUSTOM_OBJFUNC gradient : 0
-------------------------------------------------------------------------

Design variable (FFD_CONTROL_POINT_2D) number 444.
CUSTOM_OBJFUNC gradient : 0.000133822
-------------------------------------------------------------------------

Design variable (FFD_CONTROL_POINT_2D) number 445.
CUSTOM_OBJFUNC gradient : -0.00088996
-------------------------------------------------------------------------

Design variable (FFD_CONTROL_POINT_2D) number 446.
CUSTOM_OBJFUNC gradient : -0.00112367
-------------------------------------------------------------------------

Design variable (FFD_CONTROL_POINT_2D) number 447.
CUSTOM_OBJFUNC gradient : -0.000779667
-------------------------------------------------------------------------

Design variable (FFD_CONTROL_POINT_2D) number 448.
CUSTOM_OBJFUNC gradient : -0.000331682
-------------------------------------------------------------------------

Design variable (FFD_CONTROL_POINT_2D) number 449.
CUSTOM_OBJFUNC gradient : 1.60058e-05
-------------------------------------------------------------------------

Design variable (FFD_CONTROL_POINT_2D) number 450.
CUSTOM_OBJFUNC gradient : 0.000275586
-------------------------------------------------------------------------

Design variable (FFD_CONTROL_POINT_2D) number 451.
CUSTOM_OBJFUNC gradient : 0.000461664
-------------------------------------------------------------------------

Design variable (FFD_CONTROL_POINT_2D) number 452.
CUSTOM_OBJFUNC gradient : 0.000504049
-------------------------------------------------------------------------

Design variable (FFD_CONTROL_POINT_2D) number 453.
CUSTOM_OBJFUNC gradient : 0.000322347
-------------------------------------------------------------------------

Design variable (FFD_CONTROL_POINT_2D) number 454.
CUSTOM_OBJFUNC gradient : -3.7091e-05
-------------------------------------------------------------------------

Design variable (FFD_CONTROL_POINT_2D) number 455.
CUSTOM_OBJFUNC gradient : -0.00036432
-------------------------------------------------------------------------

Design variable (FFD_CONTROL_POINT_2D) number 456.
CUSTOM_OBJFUNC gradient : -0.00042856
-------------------------------------------------------------------------

Design variable (FFD_CONTROL_POINT_2D) number 457.
CUSTOM_OBJFUNC gradient : -0.000177607
-------------------------------------------------------------------------

Design variable (FFD_CONTROL_POINT_2D) number 458.
CUSTOM_OBJFUNC gradient : 0.000201818
-------------------------------------------------------------------------

Design variable (FFD_CONTROL_POINT_2D) number 459.
CUSTOM_OBJFUNC gradient : 0
-------------------------------------------------------------------------

Design variable (FFD_CONTROL_POINT_2D) number 460.
CUSTOM_OBJFUNC gradient : 0
-------------------------------------------------------------------------

Design variable (FFD_CONTROL_POINT_2D) number 461.
CUSTOM_OBJFUNC gradient : 0
-------------------------------------------------------------------------

------------------------- Finalize Solver  -------------------------
Deleted CNumerics container.
Deleted CSolver container.
Deleted CGeometry container.
Deleted CSurfaceMovement class.
Deleted CVolumetricMovement class.
Deleted CConfig container.
Deleted COutput class.

------------------------- Exit Success (SU2_DOT) ------------------------

