
-------------------------------------------------------------------------
|    ___ _   _ ___                                                      |
|   / __| | | |_  )   Release 8.0.1 "Harrier"                           |
|   \__ \ |_| |/ /                                                      |
|   |___/\___//___|   Suite (Mesh Deformation Code)                     |
|                                                                       |
-------------------------------------------------------------------------
| SU2 Project Website: https://su2code.github.io                        |
|                                                                       |
| The SU2 Project is maintained by the SU2 Foundation                   |
| (http://su2foundation.org)                                            |
-------------------------------------------------------------------------
| Copyright 2012-2024, SU2 Contributors                                 |
|                                                                       |
| SU2 is free software; you can redistribute it and/or                  |
| modify it under the terms of the GNU Lesser General Public            |
| License as published by the Free Software Foundation; either          |
| version 2.1 of the License, or (at your option) any later version.    |
|                                                                       |
| SU2 is distributed in the hope that it will be useful,                |
| but WITHOUT ANY WARRANTY; without even the implied warranty of        |
| MERCHANTABILITY or FITNESS FOR A PARTICULAR PURPOSE. See the GNU      |
| Lesser General Public License for more details.                       |
|                                                                       |
| You should have received a copy of the GNU Lesser General Public      |
| License along with SU2. If not, see <http://www.gnu.org/licenses/>.   |
-------------------------------------------------------------------------

----------------- Physical Case Definition ( Zone 0 ) -------------------
Input mesh file name: ../wedge_with_ffd.su2
Input sensitivity file name: restart_adj_cd.dat.

-------------- Surface deformation parameters ( Zone 0 ) ----------------
Design variables definition (markers <-> value <-> param):
FFD 2D (control point) <-> Wall <-> 0 <-> ( Wall, 0, 0, 1, 0 )
FFD 2D (control point) <-> Wall <-> 0 <-> ( Wall, 1, 0, 1, 0 )
FFD 2D (control point) <-> Wall <-> 0 <-> ( Wall, 2, 0, 1, 0 )
FFD 2D (control point) <-> Wall <-> 0 <-> ( Wall, 3, 0, 1, 0 )
FFD 2D (control point) <-> Wall <-> 0 <-> ( Wall, 4, 0, 1, 0 )
FFD 2D (control point) <-> Wall <-> 0 <-> ( Wall, 5, 0, 1, 0 )
FFD 2D (control point) <-> Wall <-> 0 <-> ( Wall, 6, 0, 1, 0 )
FFD 2D (control point) <-> Wall <-> 0 <-> ( Wall, 7, 0, 1, 0 )
FFD 2D (control point) <-> Wall <-> 0 <-> ( Wall, 8, 0, 1, 0 )
FFD 2D (control point) <-> Wall <-> 0 <-> ( Wall, 9, 0, 1, 0 )
FFD 2D (control point) <-> Wall <-> 0 <-> ( Wall, 10, 0, 1, 0 )
FFD 2D (control point) <-> Wall <-> 0 <-> ( Wall, 11, 0, 1, 0 )
FFD 2D (control point) <-> Wall <-> 0 <-> ( Wall, 12, 0, 1, 0 )
FFD 2D (control point) <-> Wall <-> 0 <-> ( Wall, 13, 0, 1, 0 )
FFD 2D (control point) <-> Wall <-> 0 <-> ( Wall, 14, 0, 1, 0 )
FFD 2D (control point) <-> Wall <-> 0 <-> ( Wall, 15, 0, 1, 0 )
FFD 2D (control point) <-> Wall <-> 0 <-> ( Wall, 16, 0, 1, 0 )
FFD 2D (control point) <-> Wall <-> 0 <-> ( Wall, 17, 0, 1, 0 )
FFD 2D (control point) <-> Wall <-> 0 <-> ( Wall, 18, 0, 1, 0 )
FFD 2D (control point) <-> Wall <-> 0 <-> ( Wall, 19, 0, 1, 0 )
FFD 2D (control point) <-> Wall <-> 0 <-> ( Wall, 20, 0, 1, 0 )
FFD 2D (control point) <-> Wall <-> 0 <-> ( Wall, 0, 1, 1, 0 )
FFD 2D (control point) <-> Wall <-> 0 <-> ( Wall, 1, 1, 1, 0 )
FFD 2D (control point) <-> Wall <-> 0 <-> ( Wall, 2, 1, 1, 0 )
FFD 2D (control point) <-> Wall <-> 0 <-> ( Wall, 3, 1, 1, 0 )
FFD 2D (control point) <-> Wall <-> 0 <-> ( Wall, 4, 1, 1, 0 )
FFD 2D (control point) <-> Wall <-> 0 <-> ( Wall, 5, 1, 1, 0 )
FFD 2D (control point) <-> Wall <-> 0 <-> ( Wall, 6, 1, 1, 0 )
FFD 2D (control point) <-> Wall <-> 0 <-> ( Wall, 7, 1, 1, 0 )
FFD 2D (control point) <-> Wall <-> 0 <-> ( Wall, 8, 1, 1, 0 )
FFD 2D (control point) <-> Wall <-> 0 <-> ( Wall, 9, 1, 1, 0 )
FFD 2D (control point) <-> Wall <-> 0 <-> ( Wall, 10, 1, 1, 0 )
FFD 2D (control point) <-> Wall <-> 0 <-> ( Wall, 11, 1, 1, 0 )
FFD 2D (control point) <-> Wall <-> 0 <-> ( Wall, 12, 1, 1, 0 )
FFD 2D (control point) <-> Wall <-> 0 <-> ( Wall, 13, 1, 1, 0 )
FFD 2D (control point) <-> Wall <-> 0 <-> ( Wall, 14, 1, 1, 0 )
FFD 2D (control point) <-> Wall <-> 0 <-> ( Wall, 15, 1, 1, 0 )
FFD 2D (control point) <-> Wall <-> 0 <-> ( Wall, 16, 1, 1, 0 )
FFD 2D (control point) <-> Wall <-> 0 <-> ( Wall, 17, 1, 1, 0 )
FFD 2D (control point) <-> Wall <-> 0 <-> ( Wall, 18, 1, 1, 0 )
FFD 2D (control point) <-> Wall <-> 0 <-> ( Wall, 19, 1, 1, 0 )
FFD 2D (control point) <-> Wall <-> 0 <-> ( Wall, 20, 1, 1, 0 )
FFD 2D (control point) <-> Wall <-> 0 <-> ( Wall, 0, 2, 1, 0 )
FFD 2D (control point) <-> Wall <-> 0 <-> ( Wall, 1, 2, 1, 0 )
FFD 2D (control point) <-> Wall <-> 0 <-> ( Wall, 2, 2, 1, 0 )
FFD 2D (control point) <-> Wall <-> 0 <-> ( Wall, 3, 2, 1, 0 )
FFD 2D (control point) <-> Wall <-> 0 <-> ( Wall, 4, 2, 1, 0 )
FFD 2D (control point) <-> Wall <-> 0 <-> ( Wall, 5, 2, 1, 0 )
FFD 2D (control point) <-> Wall <-> 0 <-> ( Wall, 6, 2, 1, 0 )
FFD 2D (control point) <-> Wall <-> 0 <-> ( Wall, 7, 2, 1, 0 )
FFD 2D (control point) <-> Wall <-> 0 <-> ( Wall, 8, 2, 1, 0 )
FFD 2D (control point) <-> Wall <-> 0 <-> ( Wall, 9, 2, 1, 0 )
FFD 2D (control point) <-> Wall <-> 0 <-> ( Wall, 10, 2, 1, 0 )
FFD 2D (control point) <-> Wall <-> 0 <-> ( Wall, 11, 2, 1, 0 )
FFD 2D (control point) <-> Wall <-> 0 <-> ( Wall, 12, 2, 1, 0 )
FFD 2D (control point) <-> Wall <-> 0 <-> ( Wall, 13, 2, 1, 0 )
FFD 2D (control point) <-> Wall <-> 0 <-> ( Wall, 14, 2, 1, 0 )
FFD 2D (control point) <-> Wall <-> 0 <-> ( Wall, 15, 2, 1, 0 )
FFD 2D (control point) <-> Wall <-> 0 <-> ( Wall, 16, 2, 1, 0 )
FFD 2D (control point) <-> Wall <-> 0 <-> ( Wall, 17, 2, 1, 0 )
FFD 2D (control point) <-> Wall <-> 0 <-> ( Wall, 18, 2, 1, 0 )
FFD 2D (control point) <-> Wall <-> 0 <-> ( Wall, 19, 2, 1, 0 )
FFD 2D (control point) <-> Wall <-> 0 <-> ( Wall, 20, 2, 1, 0 )
FFD 2D (control point) <-> Wall <-> 0 <-> ( Wall, 0, 3, 1, 0 )
FFD 2D (control point) <-> Wall <-> 0 <-> ( Wall, 1, 3, 1, 0 )
FFD 2D (control point) <-> Wall <-> 0 <-> ( Wall, 2, 3, 1, 0 )
FFD 2D (control point) <-> Wall <-> 0 <-> ( Wall, 3, 3, 1, 0 )
FFD 2D (control point) <-> Wall <-> 0 <-> ( Wall, 4, 3, 1, 0 )
FFD 2D (control point) <-> Wall <-> 0 <-> ( Wall, 5, 3, 1, 0 )
FFD 2D (control point) <-> Wall <-> 0 <-> ( Wall, 6, 3, 1, 0 )
FFD 2D (control point) <-> Wall <-> 0 <-> ( Wall, 7, 3, 1, 0 )
FFD 2D (control point) <-> Wall <-> 0 <-> ( Wall, 8, 3, 1, 0 )
FFD 2D (control point) <-> Wall <-> 0 <-> ( Wall, 9, 3, 1, 0 )
FFD 2D (control point) <-> Wall <-> 0 <-> ( Wall, 10, 3, 1, 0 )
FFD 2D (control point) <-> Wall <-> 0 <-> ( Wall, 11, 3, 1, 0 )
FFD 2D (control point) <-> Wall <-> 0 <-> ( Wall, 12, 3, 1, 0 )
FFD 2D (control point) <-> Wall <-> 0 <-> ( Wall, 13, 3, 1, 0 )
FFD 2D (control point) <-> Wall <-> 0 <-> ( Wall, 14, 3, 1, 0 )
FFD 2D (control point) <-> Wall <-> 0 <-> ( Wall, 15, 3, 1, 0 )
FFD 2D (control point) <-> Wall <-> 0 <-> ( Wall, 16, 3, 1, 0 )
FFD 2D (control point) <-> Wall <-> 0 <-> ( Wall, 17, 3, 1, 0 )
FFD 2D (control point) <-> Wall <-> 0 <-> ( Wall, 18, 3, 1, 0 )
FFD 2D (control point) <-> Wall <-> 0 <-> ( Wall, 19, 3, 1, 0 )
FFD 2D (control point) <-> Wall <-> 0 <-> ( Wall, 20, 3, 1, 0 )
FFD 2D (control point) <-> Wall <-> 0 <-> ( Wall, 0, 4, 1, 0 )
FFD 2D (control point) <-> Wall <-> 0 <-> ( Wall, 1, 4, 1, 0 )
FFD 2D (control point) <-> Wall <-> 0 <-> ( Wall, 2, 4, 1, 0 )
FFD 2D (control point) <-> Wall <-> 0 <-> ( Wall, 3, 4, 1, 0 )
FFD 2D (control point) <-> Wall <-> 0 <-> ( Wall, 4, 4, 1, 0 )
FFD 2D (control point) <-> Wall <-> 0 <-> ( Wall, 5, 4, 1, 0 )
FFD 2D (control point) <-> Wall <-> 0 <-> ( Wall, 6, 4, 1, 0 )
FFD 2D (control point) <-> Wall <-> 0 <-> ( Wall, 7, 4, 1, 0 )
FFD 2D (control point) <-> Wall <-> 0 <-> ( Wall, 8, 4, 1, 0 )
FFD 2D (control point) <-> Wall <-> 0 <-> ( Wall, 9, 4, 1, 0 )
FFD 2D (control point) <-> Wall <-> 0 <-> ( Wall, 10, 4, 1, 0 )
FFD 2D (control point) <-> Wall <-> 0 <-> ( Wall, 11, 4, 1, 0 )
FFD 2D (control point) <-> Wall <-> 0 <-> ( Wall, 12, 4, 1, 0 )
FFD 2D (control point) <-> Wall <-> 0 <-> ( Wall, 13, 4, 1, 0 )
FFD 2D (control point) <-> Wall <-> 0 <-> ( Wall, 14, 4, 1, 0 )
FFD 2D (control point) <-> Wall <-> 0 <-> ( Wall, 15, 4, 1, 0 )
FFD 2D (control point) <-> Wall <-> 0 <-> ( Wall, 16, 4, 1, 0 )
FFD 2D (control point) <-> Wall <-> 0 <-> ( Wall, 17, 4, 1, 0 )
FFD 2D (control point) <-> Wall <-> 0 <-> ( Wall, 18, 4, 1, 0 )
FFD 2D (control point) <-> Wall <-> 0 <-> ( Wall, 19, 4, 1, 0 )
FFD 2D (control point) <-> Wall <-> 0 <-> ( Wall, 20, 4, 1, 0 )
FFD 2D (control point) <-> Wall <-> 0 <-> ( Wall, 0, 5, 1, 0 )
FFD 2D (control point) <-> Wall <-> 0 <-> ( Wall, 1, 5, 1, 0 )
FFD 2D (control point) <-> Wall <-> 0 <-> ( Wall, 2, 5, 1, 0 )
FFD 2D (control point) <-> Wall <-> 0 <-> ( Wall, 3, 5, 1, 0 )
FFD 2D (control point) <-> Wall <-> 0 <-> ( Wall, 4, 5, 1, 0 )
FFD 2D (control point) <-> Wall <-> 0 <-> ( Wall, 5, 5, 1, 0 )
FFD 2D (control point) <-> Wall <-> 0 <-> ( Wall, 6, 5, 1, 0 )
FFD 2D (control point) <-> Wall <-> 0 <-> ( Wall, 7, 5, 1, 0 )
FFD 2D (control point) <-> Wall <-> 0 <-> ( Wall, 8, 5, 1, 0 )
FFD 2D (control point) <-> Wall <-> 0 <-> ( Wall, 9, 5, 1, 0 )
FFD 2D (control point) <-> Wall <-> 0 <-> ( Wall, 10, 5, 1, 0 )
FFD 2D (control point) <-> Wall <-> 0 <-> ( Wall, 11, 5, 1, 0 )
FFD 2D (control point) <-> Wall <-> 0 <-> ( Wall, 12, 5, 1, 0 )
FFD 2D (control point) <-> Wall <-> 0 <-> ( Wall, 13, 5, 1, 0 )
FFD 2D (control point) <-> Wall <-> 0 <-> ( Wall, 14, 5, 1, 0 )
FFD 2D (control point) <-> Wall <-> 0 <-> ( Wall, 15, 5, 1, 0 )
FFD 2D (control point) <-> Wall <-> 0 <-> ( Wall, 16, 5, 1, 0 )
FFD 2D (control point) <-> Wall <-> 0 <-> ( Wall, 17, 5, 1, 0 )
FFD 2D (control point) <-> Wall <-> 0 <-> ( Wall, 18, 5, 1, 0 )
FFD 2D (control point) <-> Wall <-> 0 <-> ( Wall, 19, 5, 1, 0 )
FFD 2D (control point) <-> Wall <-> 0 <-> ( Wall, 20, 5, 1, 0 )
FFD 2D (control point) <-> Wall <-> 0 <-> ( Wall, 0, 6, 1, 0 )
FFD 2D (control point) <-> Wall <-> 0 <-> ( Wall, 1, 6, 1, 0 )
FFD 2D (control point) <-> Wall <-> 0 <-> ( Wall, 2, 6, 1, 0 )
FFD 2D (control point) <-> Wall <-> 0 <-> ( Wall, 3, 6, 1, 0 )
FFD 2D (control point) <-> Wall <-> 0 <-> ( Wall, 4, 6, 1, 0 )
FFD 2D (control point) <-> Wall <-> 0 <-> ( Wall, 5, 6, 1, 0 )
FFD 2D (control point) <-> Wall <-> 0 <-> ( Wall, 6, 6, 1, 0 )
FFD 2D (control point) <-> Wall <-> 0 <-> ( Wall, 7, 6, 1, 0 )
FFD 2D (control point) <-> Wall <-> 0 <-> ( Wall, 8, 6, 1, 0 )
FFD 2D (control point) <-> Wall <-> 0 <-> ( Wall, 9, 6, 1, 0 )
FFD 2D (control point) <-> Wall <-> 0 <-> ( Wall, 10, 6, 1, 0 )
FFD 2D (control point) <-> Wall <-> 0 <-> ( Wall, 11, 6, 1, 0 )
FFD 2D (control point) <-> Wall <-> 0 <-> ( Wall, 12, 6, 1, 0 )
FFD 2D (control point) <-> Wall <-> 0 <-> ( Wall, 13, 6, 1, 0 )
FFD 2D (control point) <-> Wall <-> 0 <-> ( Wall, 14, 6, 1, 0 )
FFD 2D (control point) <-> Wall <-> 0 <-> ( Wall, 15, 6, 1, 0 )
FFD 2D (control point) <-> Wall <-> 0 <-> ( Wall, 16, 6, 1, 0 )
FFD 2D (control point) <-> Wall <-> 0 <-> ( Wall, 17, 6, 1, 0 )
FFD 2D (control point) <-> Wall <-> 0 <-> ( Wall, 18, 6, 1, 0 )
FFD 2D (control point) <-> Wall <-> 0 <-> ( Wall, 19, 6, 1, 0 )
FFD 2D (control point) <-> Wall <-> 0 <-> ( Wall, 20, 6, 1, 0 )
FFD 2D (control point) <-> Wall <-> 0 <-> ( Wall, 0, 7, 1, 0 )
FFD 2D (control point) <-> Wall <-> 0 <-> ( Wall, 1, 7, 1, 0 )
FFD 2D (control point) <-> Wall <-> 0 <-> ( Wall, 2, 7, 1, 0 )
FFD 2D (control point) <-> Wall <-> 0 <-> ( Wall, 3, 7, 1, 0 )
FFD 2D (control point) <-> Wall <-> 0 <-> ( Wall, 4, 7, 1, 0 )
FFD 2D (control point) <-> Wall <-> 0 <-> ( Wall, 5, 7, 1, 0 )
FFD 2D (control point) <-> Wall <-> 0 <-> ( Wall, 6, 7, 1, 0 )
FFD 2D (control point) <-> Wall <-> 0 <-> ( Wall, 7, 7, 1, 0 )
FFD 2D (control point) <-> Wall <-> 0 <-> ( Wall, 8, 7, 1, 0 )
FFD 2D (control point) <-> Wall <-> 0 <-> ( Wall, 9, 7, 1, 0 )
FFD 2D (control point) <-> Wall <-> 0 <-> ( Wall, 10, 7, 1, 0 )
FFD 2D (control point) <-> Wall <-> 0 <-> ( Wall, 11, 7, 1, 0 )
FFD 2D (control point) <-> Wall <-> 0 <-> ( Wall, 12, 7, 1, 0 )
FFD 2D (control point) <-> Wall <-> 0 <-> ( Wall, 13, 7, 1, 0 )
FFD 2D (control point) <-> Wall <-> 0 <-> ( Wall, 14, 7, 1, 0 )
FFD 2D (control point) <-> Wall <-> 0 <-> ( Wall, 15, 7, 1, 0 )
FFD 2D (control point) <-> Wall <-> 0 <-> ( Wall, 16, 7, 1, 0 )
FFD 2D (control point) <-> Wall <-> 0 <-> ( Wall, 17, 7, 1, 0 )
FFD 2D (control point) <-> Wall <-> 0 <-> ( Wall, 18, 7, 1, 0 )
FFD 2D (control point) <-> Wall <-> 0 <-> ( Wall, 19, 7, 1, 0 )
FFD 2D (control point) <-> Wall <-> 0 <-> ( Wall, 20, 7, 1, 0 )
FFD 2D (control point) <-> Wall <-> 0 <-> ( Wall, 0, 8, 1, 0 )
FFD 2D (control point) <-> Wall <-> 0 <-> ( Wall, 1, 8, 1, 0 )
FFD 2D (control point) <-> Wall <-> 0 <-> ( Wall, 2, 8, 1, 0 )
FFD 2D (control point) <-> Wall <-> 0 <-> ( Wall, 3, 8, 1, 0 )
FFD 2D (control point) <-> Wall <-> 0 <-> ( Wall, 4, 8, 1, 0 )
FFD 2D (control point) <-> Wall <-> 0 <-> ( Wall, 5, 8, 1, 0 )
FFD 2D (control point) <-> Wall <-> 0 <-> ( Wall, 6, 8, 1, 0 )
FFD 2D (control point) <-> Wall <-> 0 <-> ( Wall, 7, 8, 1, 0 )
FFD 2D (control point) <-> Wall <-> 0 <-> ( Wall, 8, 8, 1, 0 )
FFD 2D (control point) <-> Wall <-> 0 <-> ( Wall, 9, 8, 1, 0 )
FFD 2D (control point) <-> Wall <-> 0 <-> ( Wall, 10, 8, 1, 0 )
FFD 2D (control point) <-> Wall <-> 0 <-> ( Wall, 11, 8, 1, 0 )
FFD 2D (control point) <-> Wall <-> 0 <-> ( Wall, 12, 8, 1, 0 )
FFD 2D (control point) <-> Wall <-> 0 <-> ( Wall, 13, 8, 1, 0 )
FFD 2D (control point) <-> Wall <-> 0 <-> ( Wall, 14, 8, 1, 0 )
FFD 2D (control point) <-> Wall <-> 0 <-> ( Wall, 15, 8, 1, 0 )
FFD 2D (control point) <-> Wall <-> 0 <-> ( Wall, 16, 8, 1, 0 )
FFD 2D (control point) <-> Wall <-> 0 <-> ( Wall, 17, 8, 1, 0 )
FFD 2D (control point) <-> Wall <-> 0 <-> ( Wall, 18, 8, 1, 0 )
FFD 2D (control point) <-> Wall <-> 0 <-> ( Wall, 19, 8, 1, 0 )
FFD 2D (control point) <-> Wall <-> 0 <-> ( Wall, 20, 8, 1, 0 )
FFD 2D (control point) <-> Wall <-> 0 <-> ( Wall, 0, 9, 1, 0 )
FFD 2D (control point) <-> Wall <-> 0 <-> ( Wall, 1, 9, 1, 0 )
FFD 2D (control point) <-> Wall <-> 0 <-> ( Wall, 2, 9, 1, 0 )
FFD 2D (control point) <-> Wall <-> 0 <-> ( Wall, 3, 9, 1, 0 )
FFD 2D (control point) <-> Wall <-> 0 <-> ( Wall, 4, 9, 1, 0 )
FFD 2D (control point) <-> Wall <-> 0 <-> ( Wall, 5, 9, 1, 0 )
FFD 2D (control point) <-> Wall <-> 0 <-> ( Wall, 6, 9, 1, 0 )
FFD 2D (control point) <-> Wall <-> 0 <-> ( Wall, 7, 9, 1, 0 )
FFD 2D (control point) <-> Wall <-> 0 <-> ( Wall, 8, 9, 1, 0 )
FFD 2D (control point) <-> Wall <-> 0 <-> ( Wall, 9, 9, 1, 0 )
FFD 2D (control point) <-> Wall <-> 0 <-> ( Wall, 10, 9, 1, 0 )
FFD 2D (control point) <-> Wall <-> 0 <-> ( Wall, 11, 9, 1, 0 )
FFD 2D (control point) <-> Wall <-> 0 <-> ( Wall, 12, 9, 1, 0 )
FFD 2D (control point) <-> Wall <-> 0 <-> ( Wall, 13, 9, 1, 0 )
FFD 2D (control point) <-> Wall <-> 0 <-> ( Wall, 14, 9, 1, 0 )
FFD 2D (control point) <-> Wall <-> 0 <-> ( Wall, 15, 9, 1, 0 )
FFD 2D (control point) <-> Wall <-> 0 <-> ( Wall, 16, 9, 1, 0 )
FFD 2D (control point) <-> Wall <-> 0 <-> ( Wall, 17, 9, 1, 0 )
FFD 2D (control point) <-> Wall <-> 0 <-> ( Wall, 18, 9, 1, 0 )
FFD 2D (control point) <-> Wall <-> 0 <-> ( Wall, 19, 9, 1, 0 )
FFD 2D (control point) <-> Wall <-> 0 <-> ( Wall, 20, 9, 1, 0 )
FFD 2D (control point) <-> Wall <-> 0 <-> ( Wall, 0, 10, 1, 0 )
FFD 2D (control point) <-> Wall <-> 0 <-> ( Wall, 1, 10, 1, 0 )
FFD 2D (control point) <-> Wall <-> 0 <-> ( Wall, 2, 10, 1, 0 )
FFD 2D (control point) <-> Wall <-> 0 <-> ( Wall, 3, 10, 1, 0 )
FFD 2D (control point) <-> Wall <-> 0 <-> ( Wall, 4, 10, 1, 0 )
FFD 2D (control point) <-> Wall <-> 0 <-> ( Wall, 5, 10, 1, 0 )
FFD 2D (control point) <-> Wall <-> 0 <-> ( Wall, 6, 10, 1, 0 )
FFD 2D (control point) <-> Wall <-> 0 <-> ( Wall, 7, 10, 1, 0 )
FFD 2D (control point) <-> Wall <-> 0 <-> ( Wall, 8, 10, 1, 0 )
FFD 2D (control point) <-> Wall <-> 0 <-> ( Wall, 9, 10, 1, 0 )
FFD 2D (control point) <-> Wall <-> 0 <-> ( Wall, 10, 10, 1, 0 )
FFD 2D (control point) <-> Wall <-> 0 <-> ( Wall, 11, 10, 1, 0 )
FFD 2D (control point) <-> Wall <-> 0 <-> ( Wall, 12, 10, 1, 0 )
FFD 2D (control point) <-> Wall <-> 0 <-> ( Wall, 13, 10, 1, 0 )
FFD 2D (control point) <-> Wall <-> 0 <-> ( Wall, 14, 10, 1, 0 )
FFD 2D (control point) <-> Wall <-> 0 <-> ( Wall, 15, 10, 1, 0 )
FFD 2D (control point) <-> Wall <-> 0 <-> ( Wall, 16, 10, 1, 0 )
FFD 2D (control point) <-> Wall <-> 0 <-> ( Wall, 17, 10, 1, 0 )
FFD 2D (control point) <-> Wall <-> 0 <-> ( Wall, 18, 10, 1, 0 )
FFD 2D (control point) <-> Wall <-> 0 <-> ( Wall, 19, 10, 1, 0 )
FFD 2D (control point) <-> Wall <-> 0 <-> ( Wall, 20, 10, 1, 0 )
FFD 2D (control point) <-> Wall <-> 0 <-> ( Wall, 0, 0, 0, 1 )
FFD 2D (control point) <-> Wall <-> 0 <-> ( Wall, 1, 0, 0, 1 )
FFD 2D (control point) <-> Wall <-> 0 <-> ( Wall, 2, 0, 0, 1 )
FFD 2D (control point) <-> Wall <-> 0 <-> ( Wall, 3, 0, 0, 1 )
FFD 2D (control point) <-> Wall <-> 0 <-> ( Wall, 4, 0, 0, 1 )
FFD 2D (control point) <-> Wall <-> 0 <-> ( Wall, 5, 0, 0, 1 )
FFD 2D (control point) <-> Wall <-> 0 <-> ( Wall, 6, 0, 0, 1 )
FFD 2D (control point) <-> Wall <-> 0 <-> ( Wall, 7, 0, 0, 1 )
FFD 2D (control point) <-> Wall <-> 0 <-> ( Wall, 8, 0, 0, 1 )
FFD 2D (control point) <-> Wall <-> 0 <-> ( Wall, 9, 0, 0, 1 )
FFD 2D (control point) <-> Wall <-> 0 <-> ( Wall, 10, 0, 0, 1 )
FFD 2D (control point) <-> Wall <-> 0 <-> ( Wall, 11, 0, 0, 1 )
FFD 2D (control point) <-> Wall <-> 0 <-> ( Wall, 12, 0, 0, 1 )
FFD 2D (control point) <-> Wall <-> 0 <-> ( Wall, 13, 0, 0, 1 )
FFD 2D (control point) <-> Wall <-> 0 <-> ( Wall, 14, 0, 0, 1 )
FFD 2D (control point) <-> Wall <-> 0 <-> ( Wall, 15, 0, 0, 1 )
FFD 2D (control point) <-> Wall <-> 0 <-> ( Wall, 16, 0, 0, 1 )
FFD 2D (control point) <-> Wall <-> 0 <-> ( Wall, 17, 0, 0, 1 )
FFD 2D (control point) <-> Wall <-> 0 <-> ( Wall, 18, 0, 0, 1 )
FFD 2D (control point) <-> Wall <-> 0 <-> ( Wall, 19, 0, 0, 1 )
FFD 2D (control point) <-> Wall <-> 0 <-> ( Wall, 20, 0, 0, 1 )
FFD 2D (control point) <-> Wall <-> 0 <-> ( Wall, 0, 1, 0, 1 )
FFD 2D (control point) <-> Wall <-> 0 <-> ( Wall, 1, 1, 0, 1 )
FFD 2D (control point) <-> Wall <-> 0 <-> ( Wall, 2, 1, 0, 1 )
FFD 2D (control point) <-> Wall <-> 0 <-> ( Wall, 3, 1, 0, 1 )
FFD 2D (control point) <-> Wall <-> 0 <-> ( Wall, 4, 1, 0, 1 )
FFD 2D (control point) <-> Wall <-> 0 <-> ( Wall, 5, 1, 0, 1 )
FFD 2D (control point) <-> Wall <-> 0 <-> ( Wall, 6, 1, 0, 1 )
FFD 2D (control point) <-> Wall <-> 0 <-> ( Wall, 7, 1, 0, 1 )
FFD 2D (control point) <-> Wall <-> 0 <-> ( Wall, 8, 1, 0, 1 )
FFD 2D (control point) <-> Wall <-> 0 <-> ( Wall, 9, 1, 0, 1 )
FFD 2D (control point) <-> Wall <-> 0 <-> ( Wall, 10, 1, 0, 1 )
FFD 2D (control point) <-> Wall <-> 0 <-> ( Wall, 11, 1, 0, 1 )
FFD 2D (control point) <-> Wall <-> 0 <-> ( Wall, 12, 1, 0, 1 )
FFD 2D (control point) <-> Wall <-> 0 <-> ( Wall, 13, 1, 0, 1 )
FFD 2D (control point) <-> Wall <-> 0 <-> ( Wall, 14, 1, 0, 1 )
FFD 2D (control point) <-> Wall <-> 0 <-> ( Wall, 15, 1, 0, 1 )
FFD 2D (control point) <-> Wall <-> 0 <-> ( Wall, 16, 1, 0, 1 )
FFD 2D (control point) <-> Wall <-> 0 <-> ( Wall, 17, 1, 0, 1 )
FFD 2D (control point) <-> Wall <-> 0 <-> ( Wall, 18, 1, 0, 1 )
FFD 2D (control point) <-> Wall <-> 0 <-> ( Wall, 19, 1, 0, 1 )
FFD 2D (control point) <-> Wall <-> 0 <-> ( Wall, 20, 1, 0, 1 )
FFD 2D (control point) <-> Wall <-> 0 <-> ( Wall, 0, 2, 0, 1 )
FFD 2D (control point) <-> Wall <-> 0 <-> ( Wall, 1, 2, 0, 1 )
FFD 2D (control point) <-> Wall <-> 0 <-> ( Wall, 2, 2, 0, 1 )
FFD 2D (control point) <-> Wall <-> 0 <-> ( Wall, 3, 2, 0, 1 )
FFD 2D (control point) <-> Wall <-> 0 <-> ( Wall, 4, 2, 0, 1 )
FFD 2D (control point) <-> Wall <-> 0 <-> ( Wall, 5, 2, 0, 1 )
FFD 2D (control point) <-> Wall <-> 0 <-> ( Wall, 6, 2, 0, 1 )
FFD 2D (control point) <-> Wall <-> 0 <-> ( Wall, 7, 2, 0, 1 )
FFD 2D (control point) <-> Wall <-> 0 <-> ( Wall, 8, 2, 0, 1 )
FFD 2D (control point) <-> Wall <-> 0 <-> ( Wall, 9, 2, 0, 1 )
FFD 2D (control point) <-> Wall <-> 0 <-> ( Wall, 10, 2, 0, 1 )
FFD 2D (control point) <-> Wall <-> 0 <-> ( Wall, 11, 2, 0, 1 )
FFD 2D (control point) <-> Wall <-> 0 <-> ( Wall, 12, 2, 0, 1 )
FFD 2D (control point) <-> Wall <-> 0 <-> ( Wall, 13, 2, 0, 1 )
FFD 2D (control point) <-> Wall <-> 0 <-> ( Wall, 14, 2, 0, 1 )
FFD 2D (control point) <-> Wall <-> 0 <-> ( Wall, 15, 2, 0, 1 )
FFD 2D (control point) <-> Wall <-> 0 <-> ( Wall, 16, 2, 0, 1 )
FFD 2D (control point) <-> Wall <-> 0 <-> ( Wall, 17, 2, 0, 1 )
FFD 2D (control point) <-> Wall <-> 0 <-> ( Wall, 18, 2, 0, 1 )
FFD 2D (control point) <-> Wall <-> 0 <-> ( Wall, 19, 2, 0, 1 )
FFD 2D (control point) <-> Wall <-> 0 <-> ( Wall, 20, 2, 0, 1 )
FFD 2D (control point) <-> Wall <-> 0 <-> ( Wall, 0, 3, 0, 1 )
FFD 2D (control point) <-> Wall <-> 0 <-> ( Wall, 1, 3, 0, 1 )
FFD 2D (control point) <-> Wall <-> 0 <-> ( Wall, 2, 3, 0, 1 )
FFD 2D (control point) <-> Wall <-> 0 <-> ( Wall, 3, 3, 0, 1 )
FFD 2D (control point) <-> Wall <-> 0 <-> ( Wall, 4, 3, 0, 1 )
FFD 2D (control point) <-> Wall <-> 0 <-> ( Wall, 5, 3, 0, 1 )
FFD 2D (control point) <-> Wall <-> 0 <-> ( Wall, 6, 3, 0, 1 )
FFD 2D (control point) <-> Wall <-> 0 <-> ( Wall, 7, 3, 0, 1 )
FFD 2D (control point) <-> Wall <-> 0 <-> ( Wall, 8, 3, 0, 1 )
FFD 2D (control point) <-> Wall <-> 0 <-> ( Wall, 9, 3, 0, 1 )
FFD 2D (control point) <-> Wall <-> 0 <-> ( Wall, 10, 3, 0, 1 )
FFD 2D (control point) <-> Wall <-> 0 <-> ( Wall, 11, 3, 0, 1 )
FFD 2D (control point) <-> Wall <-> 0 <-> ( Wall, 12, 3, 0, 1 )
FFD 2D (control point) <-> Wall <-> 0 <-> ( Wall, 13, 3, 0, 1 )
FFD 2D (control point) <-> Wall <-> 0 <-> ( Wall, 14, 3, 0, 1 )
FFD 2D (control point) <-> Wall <-> 0 <-> ( Wall, 15, 3, 0, 1 )
FFD 2D (control point) <-> Wall <-> 0 <-> ( Wall, 16, 3, 0, 1 )
FFD 2D (control point) <-> Wall <-> 0 <-> ( Wall, 17, 3, 0, 1 )
FFD 2D (control point) <-> Wall <-> 0 <-> ( Wall, 18, 3, 0, 1 )
FFD 2D (control point) <-> Wall <-> 0 <-> ( Wall, 19, 3, 0, 1 )
FFD 2D (control point) <-> Wall <-> 0 <-> ( Wall, 20, 3, 0, 1 )
FFD 2D (control point) <-> Wall <-> 0 <-> ( Wall, 0, 4, 0, 1 )
FFD 2D (control point) <-> Wall <-> 0 <-> ( Wall, 1, 4, 0, 1 )
FFD 2D (control point) <-> Wall <-> 0 <-> ( Wall, 2, 4, 0, 1 )
FFD 2D (control point) <-> Wall <-> 0 <-> ( Wall, 3, 4, 0, 1 )
FFD 2D (control point) <-> Wall <-> 0 <-> ( Wall, 4, 4, 0, 1 )
FFD 2D (control point) <-> Wall <-> 0 <-> ( Wall, 5, 4, 0, 1 )
FFD 2D (control point) <-> Wall <-> 0 <-> ( Wall, 6, 4, 0, 1 )
FFD 2D (control point) <-> Wall <-> 0 <-> ( Wall, 7, 4, 0, 1 )
FFD 2D (control point) <-> Wall <-> 0 <-> ( Wall, 8, 4, 0, 1 )
FFD 2D (control point) <-> Wall <-> 0 <-> ( Wall, 9, 4, 0, 1 )
FFD 2D (control point) <-> Wall <-> 0 <-> ( Wall, 10, 4, 0, 1 )
FFD 2D (control point) <-> Wall <-> 0 <-> ( Wall, 11, 4, 0, 1 )
FFD 2D (control point) <-> Wall <-> 0 <-> ( Wall, 12, 4, 0, 1 )
FFD 2D (control point) <-> Wall <-> 0 <-> ( Wall, 13, 4, 0, 1 )
FFD 2D (control point) <-> Wall <-> 0 <-> ( Wall, 14, 4, 0, 1 )
FFD 2D (control point) <-> Wall <-> 0 <-> ( Wall, 15, 4, 0, 1 )
FFD 2D (control point) <-> Wall <-> 0 <-> ( Wall, 16, 4, 0, 1 )
FFD 2D (control point) <-> Wall <-> 0 <-> ( Wall, 17, 4, 0, 1 )
FFD 2D (control point) <-> Wall <-> 0 <-> ( Wall, 18, 4, 0, 1 )
FFD 2D (control point) <-> Wall <-> 0 <-> ( Wall, 19, 4, 0, 1 )
FFD 2D (control point) <-> Wall <-> 0 <-> ( Wall, 20, 4, 0, 1 )
FFD 2D (control point) <-> Wall <-> 0 <-> ( Wall, 0, 5, 0, 1 )
FFD 2D (control point) <-> Wall <-> 0 <-> ( Wall, 1, 5, 0, 1 )
FFD 2D (control point) <-> Wall <-> 0 <-> ( Wall, 2, 5, 0, 1 )
FFD 2D (control point) <-> Wall <-> 0 <-> ( Wall, 3, 5, 0, 1 )
FFD 2D (control point) <-> Wall <-> 0 <-> ( Wall, 4, 5, 0, 1 )
FFD 2D (control point) <-> Wall <-> 0 <-> ( Wall, 5, 5, 0, 1 )
FFD 2D (control point) <-> Wall <-> 0 <-> ( Wall, 6, 5, 0, 1 )
FFD 2D (control point) <-> Wall <-> 0 <-> ( Wall, 7, 5, 0, 1 )
FFD 2D (control point) <-> Wall <-> 0 <-> ( Wall, 8, 5, 0, 1 )
FFD 2D (control point) <-> Wall <-> 0 <-> ( Wall, 9, 5, 0, 1 )
FFD 2D (control point) <-> Wall <-> 0 <-> ( Wall, 10, 5, 0, 1 )
FFD 2D (control point) <-> Wall <-> 0 <-> ( Wall, 11, 5, 0, 1 )
FFD 2D (control point) <-> Wall <-> 0 <-> ( Wall, 12, 5, 0, 1 )
FFD 2D (control point) <-> Wall <-> 0 <-> ( Wall, 13, 5, 0, 1 )
FFD 2D (control point) <-> Wall <-> 0 <-> ( Wall, 14, 5, 0, 1 )
FFD 2D (control point) <-> Wall <-> 0 <-> ( Wall, 15, 5, 0, 1 )
FFD 2D (control point) <-> Wall <-> 0 <-> ( Wall, 16, 5, 0, 1 )
FFD 2D (control point) <-> Wall <-> 0 <-> ( Wall, 17, 5, 0, 1 )
FFD 2D (control point) <-> Wall <-> 0 <-> ( Wall, 18, 5, 0, 1 )
FFD 2D (control point) <-> Wall <-> 0 <-> ( Wall, 19, 5, 0, 1 )
FFD 2D (control point) <-> Wall <-> 0 <-> ( Wall, 20, 5, 0, 1 )
FFD 2D (control point) <-> Wall <-> 0 <-> ( Wall, 0, 6, 0, 1 )
FFD 2D (control point) <-> Wall <-> 0 <-> ( Wall, 1, 6, 0, 1 )
FFD 2D (control point) <-> Wall <-> 0 <-> ( Wall, 2, 6, 0, 1 )
FFD 2D (control point) <-> Wall <-> 0 <-> ( Wall, 3, 6, 0, 1 )
FFD 2D (control point) <-> Wall <-> 0 <-> ( Wall, 4, 6, 0, 1 )
FFD 2D (control point) <-> Wall <-> 0 <-> ( Wall, 5, 6, 0, 1 )
FFD 2D (control point) <-> Wall <-> 0 <-> ( Wall, 6, 6, 0, 1 )
FFD 2D (control point) <-> Wall <-> 0 <-> ( Wall, 7, 6, 0, 1 )
FFD 2D (control point) <-> Wall <-> 0 <-> ( Wall, 8, 6, 0, 1 )
FFD 2D (control point) <-> Wall <-> 0 <-> ( Wall, 9, 6, 0, 1 )
FFD 2D (control point) <-> Wall <-> 0 <-> ( Wall, 10, 6, 0, 1 )
FFD 2D (control point) <-> Wall <-> 0 <-> ( Wall, 11, 6, 0, 1 )
FFD 2D (control point) <-> Wall <-> 0 <-> ( Wall, 12, 6, 0, 1 )
FFD 2D (control point) <-> Wall <-> 0 <-> ( Wall, 13, 6, 0, 1 )
FFD 2D (control point) <-> Wall <-> 0 <-> ( Wall, 14, 6, 0, 1 )
FFD 2D (control point) <-> Wall <-> 0 <-> ( Wall, 15, 6, 0, 1 )
FFD 2D (control point) <-> Wall <-> 0 <-> ( Wall, 16, 6, 0, 1 )
FFD 2D (control point) <-> Wall <-> 0 <-> ( Wall, 17, 6, 0, 1 )
FFD 2D (control point) <-> Wall <-> 0 <-> ( Wall, 18, 6, 0, 1 )
FFD 2D (control point) <-> Wall <-> 0 <-> ( Wall, 19, 6, 0, 1 )
FFD 2D (control point) <-> Wall <-> 0 <-> ( Wall, 20, 6, 0, 1 )
FFD 2D (control point) <-> Wall <-> 0 <-> ( Wall, 0, 7, 0, 1 )
FFD 2D (control point) <-> Wall <-> 0 <-> ( Wall, 1, 7, 0, 1 )
FFD 2D (control point) <-> Wall <-> 0 <-> ( Wall, 2, 7, 0, 1 )
FFD 2D (control point) <-> Wall <-> 0 <-> ( Wall, 3, 7, 0, 1 )
FFD 2D (control point) <-> Wall <-> 0 <-> ( Wall, 4, 7, 0, 1 )
FFD 2D (control point) <-> Wall <-> 0 <-> ( Wall, 5, 7, 0, 1 )
FFD 2D (control point) <-> Wall <-> 0 <-> ( Wall, 6, 7, 0, 1 )
FFD 2D (control point) <-> Wall <-> 0 <-> ( Wall, 7, 7, 0, 1 )
FFD 2D (control point) <-> Wall <-> 0 <-> ( Wall, 8, 7, 0, 1 )
FFD 2D (control point) <-> Wall <-> 0 <-> ( Wall, 9, 7, 0, 1 )
FFD 2D (control point) <-> Wall <-> 0 <-> ( Wall, 10, 7, 0, 1 )
FFD 2D (control point) <-> Wall <-> 0 <-> ( Wall, 11, 7, 0, 1 )
FFD 2D (control point) <-> Wall <-> 0 <-> ( Wall, 12, 7, 0, 1 )
FFD 2D (control point) <-> Wall <-> 0 <-> ( Wall, 13, 7, 0, 1 )
FFD 2D (control point) <-> Wall <-> 0 <-> ( Wall, 14, 7, 0, 1 )
FFD 2D (control point) <-> Wall <-> 0 <-> ( Wall, 15, 7, 0, 1 )
FFD 2D (control point) <-> Wall <-> 0 <-> ( Wall, 16, 7, 0, 1 )
FFD 2D (control point) <-> Wall <-> 0 <-> ( Wall, 17, 7, 0, 1 )
FFD 2D (control point) <-> Wall <-> 0 <-> ( Wall, 18, 7, 0, 1 )
FFD 2D (control point) <-> Wall <-> 0 <-> ( Wall, 19, 7, 0, 1 )
FFD 2D (control point) <-> Wall <-> 0 <-> ( Wall, 20, 7, 0, 1 )
FFD 2D (control point) <-> Wall <-> 0 <-> ( Wall, 0, 8, 0, 1 )
FFD 2D (control point) <-> Wall <-> 0 <-> ( Wall, 1, 8, 0, 1 )
FFD 2D (control point) <-> Wall <-> 0 <-> ( Wall, 2, 8, 0, 1 )
FFD 2D (control point) <-> Wall <-> 0 <-> ( Wall, 3, 8, 0, 1 )
FFD 2D (control point) <-> Wall <-> 0 <-> ( Wall, 4, 8, 0, 1 )
FFD 2D (control point) <-> Wall <-> 0 <-> ( Wall, 5, 8, 0, 1 )
FFD 2D (control point) <-> Wall <-> 0 <-> ( Wall, 6, 8, 0, 1 )
FFD 2D (control point) <-> Wall <-> 0 <-> ( Wall, 7, 8, 0, 1 )
FFD 2D (control point) <-> Wall <-> 0 <-> ( Wall, 8, 8, 0, 1 )
FFD 2D (control point) <-> Wall <-> 0 <-> ( Wall, 9, 8, 0, 1 )
FFD 2D (control point) <-> Wall <-> 0 <-> ( Wall, 10, 8, 0, 1 )
FFD 2D (control point) <-> Wall <-> 0 <-> ( Wall, 11, 8, 0, 1 )
FFD 2D (control point) <-> Wall <-> 0 <-> ( Wall, 12, 8, 0, 1 )
FFD 2D (control point) <-> Wall <-> 0 <-> ( Wall, 13, 8, 0, 1 )
FFD 2D (control point) <-> Wall <-> 0 <-> ( Wall, 14, 8, 0, 1 )
FFD 2D (control point) <-> Wall <-> 0 <-> ( Wall, 15, 8, 0, 1 )
FFD 2D (control point) <-> Wall <-> 0 <-> ( Wall, 16, 8, 0, 1 )
FFD 2D (control point) <-> Wall <-> 0 <-> ( Wall, 17, 8, 0, 1 )
FFD 2D (control point) <-> Wall <-> 0 <-> ( Wall, 18, 8, 0, 1 )
FFD 2D (control point) <-> Wall <-> 0 <-> ( Wall, 19, 8, 0, 1 )
FFD 2D (control point) <-> Wall <-> 0 <-> ( Wall, 20, 8, 0, 1 )
FFD 2D (control point) <-> Wall <-> 0 <-> ( Wall, 0, 9, 0, 1 )
FFD 2D (control point) <-> Wall <-> 0 <-> ( Wall, 1, 9, 0, 1 )
FFD 2D (control point) <-> Wall <-> 0 <-> ( Wall, 2, 9, 0, 1 )
FFD 2D (control point) <-> Wall <-> 0 <-> ( Wall, 3, 9, 0, 1 )
FFD 2D (control point) <-> Wall <-> 0 <-> ( Wall, 4, 9, 0, 1 )
FFD 2D (control point) <-> Wall <-> 0 <-> ( Wall, 5, 9, 0, 1 )
FFD 2D (control point) <-> Wall <-> 0 <-> ( Wall, 6, 9, 0, 1 )
FFD 2D (control point) <-> Wall <-> 0 <-> ( Wall, 7, 9, 0, 1 )
FFD 2D (control point) <-> Wall <-> 0 <-> ( Wall, 8, 9, 0, 1 )
FFD 2D (control point) <-> Wall <-> 0 <-> ( Wall, 9, 9, 0, 1 )
FFD 2D (control point) <-> Wall <-> 0 <-> ( Wall, 10, 9, 0, 1 )
FFD 2D (control point) <-> Wall <-> 0 <-> ( Wall, 11, 9, 0, 1 )
FFD 2D (control point) <-> Wall <-> 0 <-> ( Wall, 12, 9, 0, 1 )
FFD 2D (control point) <-> Wall <-> 0 <-> ( Wall, 13, 9, 0, 1 )
FFD 2D (control point) <-> Wall <-> 0 <-> ( Wall, 14, 9, 0, 1 )
FFD 2D (control point) <-> Wall <-> 0 <-> ( Wall, 15, 9, 0, 1 )
FFD 2D (control point) <-> Wall <-> 0 <-> ( Wall, 16, 9, 0, 1 )
FFD 2D (control point) <-> Wall <-> 0 <-> ( Wall, 17, 9, 0, 1 )
FFD 2D (control point) <-> Wall <-> 0 <-> ( Wall, 18, 9, 0, 1 )
FFD 2D (control point) <-> Wall <-> 0 <-> ( Wall, 19, 9, 0, 1 )
FFD 2D (control point) <-> Wall <-> 0 <-> ( Wall, 20, 9, 0, 1 )
FFD 2D (control point) <-> Wall <-> 0 <-> ( Wall, 0, 10, 0, 1 )
FFD 2D (control point) <-> Wall <-> 0 <-> ( Wall, 1, 10, 0, 1 )
FFD 2D (control point) <-> Wall <-> 0 <-> ( Wall, 2, 10, 0, 1 )
FFD 2D (control point) <-> Wall <-> 0 <-> ( Wall, 3, 10, 0, 1 )
FFD 2D (control point) <-> Wall <-> 0 <-> ( Wall, 4, 10, 0, 1 )
FFD 2D (control point) <-> Wall <-> 0 <-> ( Wall, 5, 10, 0, 1 )
FFD 2D (control point) <-> Wall <-> 0 <-> ( Wall, 6, 10, 0, 1 )
FFD 2D (control point) <-> Wall <-> 0 <-> ( Wall, 7, 10, 0, 1 )
FFD 2D (control point) <-> Wall <-> 0 <-> ( Wall, 8, 10, 0, 1 )
FFD 2D (control point) <-> Wall <-> 0 <-> ( Wall, 9, 10, 0, 1 )
FFD 2D (control point) <-> Wall <-> 0 <-> ( Wall, 10, 10, 0, 1 )
FFD 2D (control point) <-> Wall <-> 0 <-> ( Wall, 11, 10, 0, 1 )
FFD 2D (control point) <-> Wall <-> 0 <-> ( Wall, 12, 10, 0, 1 )
FFD 2D (control point) <-> Wall <-> 0 <-> ( Wall, 13, 10, 0, 1 )
FFD 2D (control point) <-> Wall <-> 0 <-> ( Wall, 14, 10, 0, 1 )
FFD 2D (control point) <-> Wall <-> 0 <-> ( Wall, 15, 10, 0, 1 )
FFD 2D (control point) <-> Wall <-> 0 <-> ( Wall, 16, 10, 0, 1 )
FFD 2D (control point) <-> Wall <-> 0 <-> ( Wall, 17, 10, 0, 1 )
FFD 2D (control point) <-> Wall <-> 0 <-> ( Wall, 18, 10, 0, 1 )
FFD 2D (control point) <-> Wall <-> 0 <-> ( Wall, 19, 10, 0, 1 )
FFD 2D (control point) <-> Wall <-> 0 <-> ( Wall, 20, 10, 0, 1 )

---------------- Design problem definition  ( Zone 0 ) ------------------
CD objective function.

-------------------- Output Information ( Zone 0 ) ----------------------
Output Volume Sensitivity file name: volume_sens. 
Output Surface Sensitivity file name: surface_sens. 
Output gradient file name: of_grad.dat. 

------------- Config File Boundary Information ( Zone 0 ) ---------------
+-----------------------------------------------------------------------+
|                        Marker Type|                        Marker Name|
+-----------------------------------------------------------------------+
|                         Euler wall|                               Wall|
+-----------------------------------------------------------------------+
|                          Far-field|                                Far|
+-----------------------------------------------------------------------+
|          Supersonic inlet boundary|                              Inlet|
+-----------------------------------------------------------------------+
|         Supersonic outlet boundary|                             Outlet|
+-----------------------------------------------------------------------+
Two dimensional problem.
20301 grid points before partitioning.
20000 volume elements before partitioning.
4 surface markers.
140 boundary elements in index 0 (Marker = Inlet).
100 boundary elements in index 1 (Marker = Outlet).
200 boundary elements in index 2 (Marker = Far).
160 boundary elements in index 3 (Marker = Wall).
Executing the partitioning functions.
Building the graph adjacency structure.
Calling ParMETIS... graph partitioning complete (900 edge cuts).
Distributing ParMETIS coloring.
Rebalancing vertices.
Rebalancing volume element connectivity.
Rebalancing markers and surface elements.
22120 vertices including ghost points. 
20899 interior elements including halo cells. 
20899 quadrilaterals.
Establishing MPI communication patterns.
Identify vertices.
Storing a mapping from global to local point index.

----------------------- Preprocessing computations ----------------------
Setting local point connectivity.
Checking the numerical grid orientation of the elements.
All volume elements are correctly orientend.
There has been a re-orientation of 102 LINE surface elements.
Identify edges and vertices.
Setting the bound control volume structure.
Storing a mapping from global to local point index.
Reading volume sensitivities at each node from file.
Reading in sensitivity at iteration 0.

---------------------- Mesh sensitivity computation ---------------------

------------------------ Mesh sensitivity Output ------------------------
Volume output fields: COORDINATES, SOLUTION
  Info: Ignoring the following screen output fields:
  RMS_RES[0], RMS_RES[1], RMS_RES[2], RMS_RES[3], RMS_RES[4], AVG_CFL[0], DRAG[0], LIFT[0]
Screen output fields: OUTER_ITER
  Info: Ignoring the following history output groups:
  RMS_RES[0], RMS_RES[1], RMS_RES[2], RMS_RES[3], RMS_RES[4], AVG_CFL[0], DRAG[0], LIFT[0]
History output group(s): OUTER_ITER
Ignoring Convergence Field(s): RMS_ADJ_DENSITY[0] 
Warning: No (valid) fields chosen for convergence monitoring. Convergence monitoring inactive.
Warning: No (valid) fields chosen for time convergence monitoring. Time convergence monitoring inactive.
|Paraview                           |volume_sens_0.vtu                  |
|                                   |                     (201.776 MB/s)|
|Paraview surface                   |surface_sens_0.vtu                 |
|                                   |                     (4.43837 MB/s)|

---------- Start gradient evaluation using sensitivity information ----------

Evaluate functional gradient using Algorithmic Differentiation (ZONE 0).
1 Free Form Deformation boxes.
1 Free Form Deformation nested levels.
FFD box tag: Wall. FFD box level: 0. Degrees: 20, 10.
FFD Blending using Bezier Curves.
Number of parent boxes: 0. Number of child boxes: 0.
Corner points: 4. Control points: 462. Surface points: 87.

----------------- FFD technique (parametric -> cartesian) ---------------
Checking FFD box dimension.
Checking FFD box intersections with the solid surfaces.
The FFD planes i=0, i=20, j=0, intersect solid surfaces.
SU2 is fixing the planes to maintain a continuous 2nd order derivative.
Update cartesian coord        | FFD box: Wall. Max Diff: 4.12312e-10.

Design variable (FFD_CONTROL_POINT_2D) number 0.
DRAG gradient : 0
-------------------------------------------------------------------------

Design variable (FFD_CONTROL_POINT_2D) number 1.
DRAG gradient : 0
-------------------------------------------------------------------------

Design variable (FFD_CONTROL_POINT_2D) number 2.
DRAG gradient : 0
-------------------------------------------------------------------------

Design variable (FFD_CONTROL_POINT_2D) number 3.
DRAG gradient : 0
-------------------------------------------------------------------------

Design variable (FFD_CONTROL_POINT_2D) number 4.
DRAG gradient : 0
-------------------------------------------------------------------------

Design variable (FFD_CONTROL_POINT_2D) number 5.
DRAG gradient : 0
-------------------------------------------------------------------------

Design variable (FFD_CONTROL_POINT_2D) number 6.
DRAG gradient : 0
-------------------------------------------------------------------------

Design variable (FFD_CONTROL_POINT_2D) number 7.
DRAG gradient : 0
-------------------------------------------------------------------------

Design variable (FFD_CONTROL_POINT_2D) number 8.
DRAG gradient : 0
-------------------------------------------------------------------------

Design variable (FFD_CONTROL_POINT_2D) number 9.
DRAG gradient : 0
-------------------------------------------------------------------------

Design variable (FFD_CONTROL_POINT_2D) number 10.
DRAG gradient : 0
-------------------------------------------------------------------------

Design variable (FFD_CONTROL_POINT_2D) number 11.
DRAG gradient : 0
-------------------------------------------------------------------------

Design variable (FFD_CONTROL_POINT_2D) number 12.
DRAG gradient : 0
-------------------------------------------------------------------------

Design variable (FFD_CONTROL_POINT_2D) number 13.
DRAG gradient : 0
-------------------------------------------------------------------------

Design variable (FFD_CONTROL_POINT_2D) number 14.
DRAG gradient : 0
-------------------------------------------------------------------------

Design variable (FFD_CONTROL_POINT_2D) number 15.
DRAG gradient : 0
-------------------------------------------------------------------------

Design variable (FFD_CONTROL_POINT_2D) number 16.
DRAG gradient : 0
-------------------------------------------------------------------------

Design variable (FFD_CONTROL_POINT_2D) number 17.
DRAG gradient : 0
-------------------------------------------------------------------------

Design variable (FFD_CONTROL_POINT_2D) number 18.
DRAG gradient : 0
-------------------------------------------------------------------------

Design variable (FFD_CONTROL_POINT_2D) number 19.
DRAG gradient : 0
-------------------------------------------------------------------------

Design variable (FFD_CONTROL_POINT_2D) number 20.
DRAG gradient : 0
-------------------------------------------------------------------------

Design variable (FFD_CONTROL_POINT_2D) number 21.
DRAG gradient : 0
-------------------------------------------------------------------------

Design variable (FFD_CONTROL_POINT_2D) number 22.
DRAG gradient : 0
-------------------------------------------------------------------------

Design variable (FFD_CONTROL_POINT_2D) number 23.
DRAG gradient : 0
-------------------------------------------------------------------------

Design variable (FFD_CONTROL_POINT_2D) number 24.
DRAG gradient : 0
-------------------------------------------------------------------------

Design variable (FFD_CONTROL_POINT_2D) number 25.
DRAG gradient : 0
-------------------------------------------------------------------------

Design variable (FFD_CONTROL_POINT_2D) number 26.
DRAG gradient : 0
-------------------------------------------------------------------------

Design variable (FFD_CONTROL_POINT_2D) number 27.
DRAG gradient : 0
-------------------------------------------------------------------------

Design variable (FFD_CONTROL_POINT_2D) number 28.
DRAG gradient : 0
-------------------------------------------------------------------------

Design variable (FFD_CONTROL_POINT_2D) number 29.
DRAG gradient : 0
-------------------------------------------------------------------------

Design variable (FFD_CONTROL_POINT_2D) number 30.
DRAG gradient : 0
-------------------------------------------------------------------------

Design variable (FFD_CONTROL_POINT_2D) number 31.
DRAG gradient : 0
-------------------------------------------------------------------------

Design variable (FFD_CONTROL_POINT_2D) number 32.
DRAG gradient : 0
-------------------------------------------------------------------------

Design variable (FFD_CONTROL_POINT_2D) number 33.
DRAG gradient : 0
-------------------------------------------------------------------------

Design variable (FFD_CONTROL_POINT_2D) number 34.
DRAG gradient : 0
-------------------------------------------------------------------------

Design variable (FFD_CONTROL_POINT_2D) number 35.
DRAG gradient : 0
-------------------------------------------------------------------------

Design variable (FFD_CONTROL_POINT_2D) number 36.
DRAG gradient : 0
-------------------------------------------------------------------------

Design variable (FFD_CONTROL_POINT_2D) number 37.
DRAG gradient : 0
-------------------------------------------------------------------------

Design variable (FFD_CONTROL_POINT_2D) number 38.
DRAG gradient : 0
-------------------------------------------------------------------------

Design variable (FFD_CONTROL_POINT_2D) number 39.
DRAG gradient : 0
-------------------------------------------------------------------------

Design variable (FFD_CONTROL_POINT_2D) number 40.
DRAG gradient : 0
-------------------------------------------------------------------------

Design variable (FFD_CONTROL_POINT_2D) number 41.
DRAG gradient : 0
-------------------------------------------------------------------------

Design variable (FFD_CONTROL_POINT_2D) number 42.
DRAG gradient : 0
-------------------------------------------------------------------------

Design variable (FFD_CONTROL_POINT_2D) number 43.
DRAG gradient : 0
-------------------------------------------------------------------------

Design variable (FFD_CONTROL_POINT_2D) number 44.
DRAG gradient : 0
-------------------------------------------------------------------------

Design variable (FFD_CONTROL_POINT_2D) number 45.
DRAG gradient : 0
-------------------------------------------------------------------------

Design variable (FFD_CONTROL_POINT_2D) number 46.
DRAG gradient : 0
-------------------------------------------------------------------------

Design variable (FFD_CONTROL_POINT_2D) number 47.
DRAG gradient : 0
-------------------------------------------------------------------------

Design variable (FFD_CONTROL_POINT_2D) number 48.
DRAG gradient : 0
-------------------------------------------------------------------------

Design variable (FFD_CONTROL_POINT_2D) number 49.
DRAG gradient : 0
-------------------------------------------------------------------------

Design variable (FFD_CONTROL_POINT_2D) number 50.
DRAG gradient : 0
-------------------------------------------------------------------------

Design variable (FFD_CONTROL_POINT_2D) number 51.
DRAG gradient : 0
-------------------------------------------------------------------------

Design variable (FFD_CONTROL_POINT_2D) number 52.
DRAG gradient : 0
-------------------------------------------------------------------------

Design variable (FFD_CONTROL_POINT_2D) number 53.
DRAG gradient : 0
-------------------------------------------------------------------------

Design variable (FFD_CONTROL_POINT_2D) number 54.
DRAG gradient : 0
-------------------------------------------------------------------------

Design variable (FFD_CONTROL_POINT_2D) number 55.
DRAG gradient : 0
-------------------------------------------------------------------------

Design variable (FFD_CONTROL_POINT_2D) number 56.
DRAG gradient : 0
-------------------------------------------------------------------------

Design variable (FFD_CONTROL_POINT_2D) number 57.
DRAG gradient : 0
-------------------------------------------------------------------------

Design variable (FFD_CONTROL_POINT_2D) number 58.
DRAG gradient : 0
-------------------------------------------------------------------------

Design variable (FFD_CONTROL_POINT_2D) number 59.
DRAG gradient : 0
-------------------------------------------------------------------------

Design variable (FFD_CONTROL_POINT_2D) number 60.
DRAG gradient : 0
-------------------------------------------------------------------------

Design variable (FFD_CONTROL_POINT_2D) number 61.
DRAG gradient : 0
-------------------------------------------------------------------------

Design variable (FFD_CONTROL_POINT_2D) number 62.
DRAG gradient : 0
-------------------------------------------------------------------------

Design variable (FFD_CONTROL_POINT_2D) number 63.
DRAG gradient : 0
-------------------------------------------------------------------------

Design variable (FFD_CONTROL_POINT_2D) number 64.
DRAG gradient : 0
-------------------------------------------------------------------------

Design variable (FFD_CONTROL_POINT_2D) number 65.
DRAG gradient : 0
-------------------------------------------------------------------------

Design variable (FFD_CONTROL_POINT_2D) number 66.
DRAG gradient : 0.00129175
-------------------------------------------------------------------------

Design variable (FFD_CONTROL_POINT_2D) number 67.
DRAG gradient : -0.00907434
-------------------------------------------------------------------------

Design variable (FFD_CONTROL_POINT_2D) number 68.
DRAG gradient : -0.0114725
-------------------------------------------------------------------------

Design variable (FFD_CONTROL_POINT_2D) number 69.
DRAG gradient : -0.00802655
-------------------------------------------------------------------------

Design variable (FFD_CONTROL_POINT_2D) number 70.
DRAG gradient : -0.00362103
-------------------------------------------------------------------------

Design variable (FFD_CONTROL_POINT_2D) number 71.
DRAG gradient : -0.000412764
-------------------------------------------------------------------------

Design variable (FFD_CONTROL_POINT_2D) number 72.
DRAG gradient : 0.00171535
-------------------------------------------------------------------------

Design variable (FFD_CONTROL_POINT_2D) number 73.
DRAG gradient : 0.00309969
-------------------------------------------------------------------------

Design variable (FFD_CONTROL_POINT_2D) number 74.
DRAG gradient : 0.00342009
-------------------------------------------------------------------------

Design variable (FFD_CONTROL_POINT_2D) number 75.
DRAG gradient : 0.00219103
-------------------------------------------------------------------------

Design variable (FFD_CONTROL_POINT_2D) number 76.
DRAG gradient : -0.000262288
-------------------------------------------------------------------------

Design variable (FFD_CONTROL_POINT_2D) number 77.
DRAG gradient : -0.00252328
-------------------------------------------------------------------------

Design variable (FFD_CONTROL_POINT_2D) number 78.
DRAG gradient : -0.00302217
-------------------------------------------------------------------------

Design variable (FFD_CONTROL_POINT_2D) number 79.
DRAG gradient : -0.00133266
-------------------------------------------------------------------------

Design variable (FFD_CONTROL_POINT_2D) number 80.
DRAG gradient : 0.0014117
-------------------------------------------------------------------------

Design variable (FFD_CONTROL_POINT_2D) number 81.
DRAG gradient : 0
-------------------------------------------------------------------------

Design variable (FFD_CONTROL_POINT_2D) number 82.
DRAG gradient : 0
-------------------------------------------------------------------------

Design variable (FFD_CONTROL_POINT_2D) number 83.
DRAG gradient : 0
-------------------------------------------------------------------------

Design variable (FFD_CONTROL_POINT_2D) number 84.
DRAG gradient : 0
-------------------------------------------------------------------------

Design variable (FFD_CONTROL_POINT_2D) number 85.
DRAG gradient : 0
-------------------------------------------------------------------------

Design variable (FFD_CONTROL_POINT_2D) number 86.
DRAG gradient : 0
-------------------------------------------------------------------------

Design variable (FFD_CONTROL_POINT_2D) number 87.
DRAG gradient : 0.00226057
-------------------------------------------------------------------------

Design variable (FFD_CONTROL_POINT_2D) number 88.
DRAG gradient : -0.0158801
-------------------------------------------------------------------------

Design variable (FFD_CONTROL_POINT_2D) number 89.
DRAG gradient : -0.0200768
-------------------------------------------------------------------------

Design variable (FFD_CONTROL_POINT_2D) number 90.
DRAG gradient : -0.0140465
-------------------------------------------------------------------------

Design variable (FFD_CONTROL_POINT_2D) number 91.
DRAG gradient : -0.00633681
-------------------------------------------------------------------------

Design variable (FFD_CONTROL_POINT_2D) number 92.
DRAG gradient : -0.000722337
-------------------------------------------------------------------------

Design variable (FFD_CONTROL_POINT_2D) number 93.
DRAG gradient : 0.00300186
-------------------------------------------------------------------------

Design variable (FFD_CONTROL_POINT_2D) number 94.
DRAG gradient : 0.00542447
-------------------------------------------------------------------------

Design variable (FFD_CONTROL_POINT_2D) number 95.
DRAG gradient : 0.00598516
-------------------------------------------------------------------------

Design variable (FFD_CONTROL_POINT_2D) number 96.
DRAG gradient : 0.0038343
-------------------------------------------------------------------------

Design variable (FFD_CONTROL_POINT_2D) number 97.
DRAG gradient : -0.000459004
-------------------------------------------------------------------------

Design variable (FFD_CONTROL_POINT_2D) number 98.
DRAG gradient : -0.00441574
-------------------------------------------------------------------------

Design variable (FFD_CONTROL_POINT_2D) number 99.
DRAG gradient : -0.0052888
-------------------------------------------------------------------------

Design variable (FFD_CONTROL_POINT_2D) number 100.
DRAG gradient : -0.00233216
-------------------------------------------------------------------------

Design variable (FFD_CONTROL_POINT_2D) number 101.
DRAG gradient : 0.00247048
-------------------------------------------------------------------------

Design variable (FFD_CONTROL_POINT_2D) number 102.
DRAG gradient : 0
-------------------------------------------------------------------------

Design variable (FFD_CONTROL_POINT_2D) number 103.
DRAG gradient : 0
-------------------------------------------------------------------------

Design variable (FFD_CONTROL_POINT_2D) number 104.
DRAG gradient : 0
-------------------------------------------------------------------------

Design variable (FFD_CONTROL_POINT_2D) number 105.
DRAG gradient : 0
-------------------------------------------------------------------------

Design variable (FFD_CONTROL_POINT_2D) number 106.
DRAG gradient : 0
-------------------------------------------------------------------------

Design variable (FFD_CONTROL_POINT_2D) number 107.
DRAG gradient : 0
-------------------------------------------------------------------------

Design variable (FFD_CONTROL_POINT_2D) number 108.
DRAG gradient : 0.00271268
-------------------------------------------------------------------------

Design variable (FFD_CONTROL_POINT_2D) number 109.
DRAG gradient : -0.0190561
-------------------------------------------------------------------------

Design variable (FFD_CONTROL_POINT_2D) number 110.
DRAG gradient : -0.0240922
-------------------------------------------------------------------------

Design variable (FFD_CONTROL_POINT_2D) number 111.
DRAG gradient : -0.0168558
-------------------------------------------------------------------------

Design variable (FFD_CONTROL_POINT_2D) number 112.
DRAG gradient : -0.00760417
-------------------------------------------------------------------------

Design variable (FFD_CONTROL_POINT_2D) number 113.
DRAG gradient : -0.000866804
-------------------------------------------------------------------------

Design variable (FFD_CONTROL_POINT_2D) number 114.
DRAG gradient : 0.00360224
-------------------------------------------------------------------------

Design variable (FFD_CONTROL_POINT_2D) number 115.
DRAG gradient : 0.00650936
-------------------------------------------------------------------------

Design variable (FFD_CONTROL_POINT_2D) number 116.
DRAG gradient : 0.00718219
-------------------------------------------------------------------------

Design variable (FFD_CONTROL_POINT_2D) number 117.
DRAG gradient : 0.00460116
-------------------------------------------------------------------------

Design variable (FFD_CONTROL_POINT_2D) number 118.
DRAG gradient : -0.000550805
-------------------------------------------------------------------------

Design variable (FFD_CONTROL_POINT_2D) number 119.
DRAG gradient : -0.00529889
-------------------------------------------------------------------------

Design variable (FFD_CONTROL_POINT_2D) number 120.
DRAG gradient : -0.00634656
-------------------------------------------------------------------------

Design variable (FFD_CONTROL_POINT_2D) number 121.
DRAG gradient : -0.00279859
-------------------------------------------------------------------------

Design variable (FFD_CONTROL_POINT_2D) number 122.
DRAG gradient : 0.00296458
-------------------------------------------------------------------------

Design variable (FFD_CONTROL_POINT_2D) number 123.
DRAG gradient : 0
-------------------------------------------------------------------------

Design variable (FFD_CONTROL_POINT_2D) number 124.
DRAG gradient : 0
-------------------------------------------------------------------------

Design variable (FFD_CONTROL_POINT_2D) number 125.
DRAG gradient : 0
-------------------------------------------------------------------------

Design variable (FFD_CONTROL_POINT_2D) number 126.
DRAG gradient : 0
-------------------------------------------------------------------------

Design variable (FFD_CONTROL_POINT_2D) number 127.
DRAG gradient : 0
-------------------------------------------------------------------------

Design variable (FFD_CONTROL_POINT_2D) number 128.
DRAG gradient : 0
-------------------------------------------------------------------------

Design variable (FFD_CONTROL_POINT_2D) number 129.
DRAG gradient : 0.00226057
-------------------------------------------------------------------------

Design variable (FFD_CONTROL_POINT_2D) number 130.
DRAG gradient : -0.0158801
-------------------------------------------------------------------------

Design variable (FFD_CONTROL_POINT_2D) number 131.
DRAG gradient : -0.0200768
-------------------------------------------------------------------------

Design variable (FFD_CONTROL_POINT_2D) number 132.
DRAG gradient : -0.0140465
-------------------------------------------------------------------------

Design variable (FFD_CONTROL_POINT_2D) number 133.
DRAG gradient : -0.00633681
-------------------------------------------------------------------------

Design variable (FFD_CONTROL_POINT_2D) number 134.
DRAG gradient : -0.000722337
-------------------------------------------------------------------------

Design variable (FFD_CONTROL_POINT_2D) number 135.
DRAG gradient : 0.00300186
-------------------------------------------------------------------------

Design variable (FFD_CONTROL_POINT_2D) number 136.
DRAG gradient : 0.00542447
-------------------------------------------------------------------------

Design variable (FFD_CONTROL_POINT_2D) number 137.
DRAG gradient : 0.00598516
-------------------------------------------------------------------------

Design variable (FFD_CONTROL_POINT_2D) number 138.
DRAG gradient : 0.0038343
-------------------------------------------------------------------------

Design variable (FFD_CONTROL_POINT_2D) number 139.
DRAG gradient : -0.000459004
-------------------------------------------------------------------------

Design variable (FFD_CONTROL_POINT_2D) number 140.
DRAG gradient : -0.00441574
-------------------------------------------------------------------------

Design variable (FFD_CONTROL_POINT_2D) number 141.
DRAG gradient : -0.0052888
-------------------------------------------------------------------------

Design variable (FFD_CONTROL_POINT_2D) number 142.
DRAG gradient : -0.00233216
-------------------------------------------------------------------------

Design variable (FFD_CONTROL_POINT_2D) number 143.
DRAG gradient : 0.00247048
-------------------------------------------------------------------------

Design variable (FFD_CONTROL_POINT_2D) number 144.
DRAG gradient : 0
-------------------------------------------------------------------------

Design variable (FFD_CONTROL_POINT_2D) number 145.
DRAG gradient : 0
-------------------------------------------------------------------------

Design variable (FFD_CONTROL_POINT_2D) number 146.
DRAG gradient : 0
-------------------------------------------------------------------------

Design variable (FFD_CONTROL_POINT_2D) number 147.
DRAG gradient : 0
-------------------------------------------------------------------------

Design variable (FFD_CONTROL_POINT_2D) number 148.
DRAG gradient : 0
-------------------------------------------------------------------------

Design variable (FFD_CONTROL_POINT_2D) number 149.
DRAG gradient : 0
-------------------------------------------------------------------------

Design variable (FFD_CONTROL_POINT_2D) number 150.
DRAG gradient : 0.00129175
-------------------------------------------------------------------------

Design variable (FFD_CONTROL_POINT_2D) number 151.
DRAG gradient : -0.00907434
-------------------------------------------------------------------------

Design variable (FFD_CONTROL_POINT_2D) number 152.
DRAG gradient : -0.0114725
-------------------------------------------------------------------------

Design variable (FFD_CONTROL_POINT_2D) number 153.
DRAG gradient : -0.00802655
-------------------------------------------------------------------------

Design variable (FFD_CONTROL_POINT_2D) number 154.
DRAG gradient : -0.00362103
-------------------------------------------------------------------------

Design variable (FFD_CONTROL_POINT_2D) number 155.
DRAG gradient : -0.000412764
-------------------------------------------------------------------------

Design variable (FFD_CONTROL_POINT_2D) number 156.
DRAG gradient : 0.00171535
-------------------------------------------------------------------------

Design variable (FFD_CONTROL_POINT_2D) number 157.
DRAG gradient : 0.00309969
-------------------------------------------------------------------------

Design variable (FFD_CONTROL_POINT_2D) number 158.
DRAG gradient : 0.00342009
-------------------------------------------------------------------------

Design variable (FFD_CONTROL_POINT_2D) number 159.
DRAG gradient : 0.00219103
-------------------------------------------------------------------------

Design variable (FFD_CONTROL_POINT_2D) number 160.
DRAG gradient : -0.000262288
-------------------------------------------------------------------------

Design variable (FFD_CONTROL_POINT_2D) number 161.
DRAG gradient : -0.00252328
-------------------------------------------------------------------------

Design variable (FFD_CONTROL_POINT_2D) number 162.
DRAG gradient : -0.00302217
-------------------------------------------------------------------------

Design variable (FFD_CONTROL_POINT_2D) number 163.
DRAG gradient : -0.00133266
-------------------------------------------------------------------------

Design variable (FFD_CONTROL_POINT_2D) number 164.
DRAG gradient : 0.0014117
-------------------------------------------------------------------------

Design variable (FFD_CONTROL_POINT_2D) number 165.
DRAG gradient : 0
-------------------------------------------------------------------------

Design variable (FFD_CONTROL_POINT_2D) number 166.
DRAG gradient : 0
-------------------------------------------------------------------------

Design variable (FFD_CONTROL_POINT_2D) number 167.
DRAG gradient : 0
-------------------------------------------------------------------------

Design variable (FFD_CONTROL_POINT_2D) number 168.
DRAG gradient : 0
-------------------------------------------------------------------------

Design variable (FFD_CONTROL_POINT_2D) number 169.
DRAG gradient : 0
-------------------------------------------------------------------------

Design variable (FFD_CONTROL_POINT_2D) number 170.
DRAG gradient : 0
-------------------------------------------------------------------------

Design variable (FFD_CONTROL_POINT_2D) number 171.
DRAG gradient : 0.000484407
-------------------------------------------------------------------------

Design variable (FFD_CONTROL_POINT_2D) number 172.
DRAG gradient : -0.00340288
-------------------------------------------------------------------------

Design variable (FFD_CONTROL_POINT_2D) number 173.
DRAG gradient : -0.00430218
-------------------------------------------------------------------------

Design variable (FFD_CONTROL_POINT_2D) number 174.
DRAG gradient : -0.00300996
-------------------------------------------------------------------------

Design variable (FFD_CONTROL_POINT_2D) number 175.
DRAG gradient : -0.00135789
-------------------------------------------------------------------------

Design variable (FFD_CONTROL_POINT_2D) number 176.
DRAG gradient : -0.000154786
-------------------------------------------------------------------------

Design variable (FFD_CONTROL_POINT_2D) number 177.
DRAG gradient : 0.000643256
-------------------------------------------------------------------------

Design variable (FFD_CONTROL_POINT_2D) number 178.
DRAG gradient : 0.00116239
-------------------------------------------------------------------------

Design variable (FFD_CONTROL_POINT_2D) number 179.
DRAG gradient : 0.00128253
-------------------------------------------------------------------------

Design variable (FFD_CONTROL_POINT_2D) number 180.
DRAG gradient : 0.000821636
-------------------------------------------------------------------------

Design variable (FFD_CONTROL_POINT_2D) number 181.
DRAG gradient : -9.8358e-05
-------------------------------------------------------------------------

Design variable (FFD_CONTROL_POINT_2D) number 182.
DRAG gradient : -0.00094623
-------------------------------------------------------------------------

Design variable (FFD_CONTROL_POINT_2D) number 183.
DRAG gradient : -0.00113331
-------------------------------------------------------------------------

Design variable (FFD_CONTROL_POINT_2D) number 184.
DRAG gradient : -0.000499749
-------------------------------------------------------------------------

Design variable (FFD_CONTROL_POINT_2D) number 185.
DRAG gradient : 0.000529389
-------------------------------------------------------------------------

Design variable (FFD_CONTROL_POINT_2D) number 186.
DRAG gradient : 0
-------------------------------------------------------------------------

Design variable (FFD_CONTROL_POINT_2D) number 187.
DRAG gradient : 0
-------------------------------------------------------------------------

Design variable (FFD_CONTROL_POINT_2D) number 188.
DRAG gradient : 0
-------------------------------------------------------------------------

Design variable (FFD_CONTROL_POINT_2D) number 189.
DRAG gradient : 0
-------------------------------------------------------------------------

Design variable (FFD_CONTROL_POINT_2D) number 190.
DRAG gradient : 0
-------------------------------------------------------------------------

Design variable (FFD_CONTROL_POINT_2D) number 191.
DRAG gradient : 0
-------------------------------------------------------------------------

Design variable (FFD_CONTROL_POINT_2D) number 192.
DRAG gradient : 0.000107646
-------------------------------------------------------------------------

Design variable (FFD_CONTROL_POINT_2D) number 193.
DRAG gradient : -0.000756195
-------------------------------------------------------------------------

Design variable (FFD_CONTROL_POINT_2D) number 194.
DRAG gradient : -0.000956039
-------------------------------------------------------------------------

Design variable (FFD_CONTROL_POINT_2D) number 195.
DRAG gradient : -0.00066888
-------------------------------------------------------------------------

Design variable (FFD_CONTROL_POINT_2D) number 196.
DRAG gradient : -0.000301753
-------------------------------------------------------------------------

Design variable (FFD_CONTROL_POINT_2D) number 197.
DRAG gradient : -3.4397e-05
-------------------------------------------------------------------------

Design variable (FFD_CONTROL_POINT_2D) number 198.
DRAG gradient : 0.000142946
-------------------------------------------------------------------------

Design variable (FFD_CONTROL_POINT_2D) number 199.
DRAG gradient : 0.000258308
-------------------------------------------------------------------------

Design variable (FFD_CONTROL_POINT_2D) number 200.
DRAG gradient : 0.000285008
-------------------------------------------------------------------------

Design variable (FFD_CONTROL_POINT_2D) number 201.
DRAG gradient : 0.000182586
-------------------------------------------------------------------------

Design variable (FFD_CONTROL_POINT_2D) number 202.
DRAG gradient : -2.18573e-05
-------------------------------------------------------------------------

Design variable (FFD_CONTROL_POINT_2D) number 203.
DRAG gradient : -0.000210273
-------------------------------------------------------------------------

Design variable (FFD_CONTROL_POINT_2D) number 204.
DRAG gradient : -0.000251848
-------------------------------------------------------------------------

Design variable (FFD_CONTROL_POINT_2D) number 205.
DRAG gradient : -0.000111055
-------------------------------------------------------------------------

Design variable (FFD_CONTROL_POINT_2D) number 206.
DRAG gradient : 0.000117642
-------------------------------------------------------------------------

Design variable (FFD_CONTROL_POINT_2D) number 207.
DRAG gradient : 0
-------------------------------------------------------------------------

Design variable (FFD_CONTROL_POINT_2D) number 208.
DRAG gradient : 0
-------------------------------------------------------------------------

Design variable (FFD_CONTROL_POINT_2D) number 209.
DRAG gradient : 0
-------------------------------------------------------------------------

Design variable (FFD_CONTROL_POINT_2D) number 210.
DRAG gradient : 0
-------------------------------------------------------------------------

Design variable (FFD_CONTROL_POINT_2D) number 211.
DRAG gradient : 0
-------------------------------------------------------------------------

Design variable (FFD_CONTROL_POINT_2D) number 212.
DRAG gradient : 0
-------------------------------------------------------------------------

Design variable (FFD_CONTROL_POINT_2D) number 213.
DRAG gradient : 1.07646e-05
-------------------------------------------------------------------------

Design variable (FFD_CONTROL_POINT_2D) number 214.
DRAG gradient : -7.56195e-05
-------------------------------------------------------------------------

Design variable (FFD_CONTROL_POINT_2D) number 215.
DRAG gradient : -9.56039e-05
-------------------------------------------------------------------------

Design variable (FFD_CONTROL_POINT_2D) number 216.
DRAG gradient : -6.6888e-05
-------------------------------------------------------------------------

Design variable (FFD_CONTROL_POINT_2D) number 217.
DRAG gradient : -3.01753e-05
-------------------------------------------------------------------------

Design variable (FFD_CONTROL_POINT_2D) number 218.
DRAG gradient : -3.4397e-06
-------------------------------------------------------------------------

Design variable (FFD_CONTROL_POINT_2D) number 219.
DRAG gradient : 1.42946e-05
-------------------------------------------------------------------------

Design variable (FFD_CONTROL_POINT_2D) number 220.
DRAG gradient : 2.58308e-05
-------------------------------------------------------------------------

Design variable (FFD_CONTROL_POINT_2D) number 221.
DRAG gradient : 2.85008e-05
-------------------------------------------------------------------------

Design variable (FFD_CONTROL_POINT_2D) number 222.
DRAG gradient : 1.82586e-05
-------------------------------------------------------------------------

Design variable (FFD_CONTROL_POINT_2D) number 223.
DRAG gradient : -2.18573e-06
-------------------------------------------------------------------------

Design variable (FFD_CONTROL_POINT_2D) number 224.
DRAG gradient : -2.10273e-05
-------------------------------------------------------------------------

Design variable (FFD_CONTROL_POINT_2D) number 225.
DRAG gradient : -2.51848e-05
-------------------------------------------------------------------------

Design variable (FFD_CONTROL_POINT_2D) number 226.
DRAG gradient : -1.11055e-05
-------------------------------------------------------------------------

Design variable (FFD_CONTROL_POINT_2D) number 227.
DRAG gradient : 1.17642e-05
-------------------------------------------------------------------------

Design variable (FFD_CONTROL_POINT_2D) number 228.
DRAG gradient : 0
-------------------------------------------------------------------------

Design variable (FFD_CONTROL_POINT_2D) number 229.
DRAG gradient : 0
-------------------------------------------------------------------------

Design variable (FFD_CONTROL_POINT_2D) number 230.
DRAG gradient : 0
-------------------------------------------------------------------------

Design variable (FFD_CONTROL_POINT_2D) number 231.
DRAG gradient : 0
-------------------------------------------------------------------------

Design variable (FFD_CONTROL_POINT_2D) number 232.
DRAG gradient : 0
-------------------------------------------------------------------------

Design variable (FFD_CONTROL_POINT_2D) number 233.
DRAG gradient : 0
-------------------------------------------------------------------------

Design variable (FFD_CONTROL_POINT_2D) number 234.
DRAG gradient : 0
-------------------------------------------------------------------------

Design variable (FFD_CONTROL_POINT_2D) number 235.
DRAG gradient : 0
-------------------------------------------------------------------------

Design variable (FFD_CONTROL_POINT_2D) number 236.
DRAG gradient : 0
-------------------------------------------------------------------------

Design variable (FFD_CONTROL_POINT_2D) number 237.
DRAG gradient : 0
-------------------------------------------------------------------------

Design variable (FFD_CONTROL_POINT_2D) number 238.
DRAG gradient : 0
-------------------------------------------------------------------------

Design variable (FFD_CONTROL_POINT_2D) number 239.
DRAG gradient : 0
-------------------------------------------------------------------------

Design variable (FFD_CONTROL_POINT_2D) number 240.
DRAG gradient : 0
-------------------------------------------------------------------------

Design variable (FFD_CONTROL_POINT_2D) number 241.
DRAG gradient : 0
-------------------------------------------------------------------------

Design variable (FFD_CONTROL_POINT_2D) number 242.
DRAG gradient : 0
-------------------------------------------------------------------------

Design variable (FFD_CONTROL_POINT_2D) number 243.
DRAG gradient : 0
-------------------------------------------------------------------------

Design variable (FFD_CONTROL_POINT_2D) number 244.
DRAG gradient : 0
-------------------------------------------------------------------------

Design variable (FFD_CONTROL_POINT_2D) number 245.
DRAG gradient : 0
-------------------------------------------------------------------------

Design variable (FFD_CONTROL_POINT_2D) number 246.
DRAG gradient : 0
-------------------------------------------------------------------------

Design variable (FFD_CONTROL_POINT_2D) number 247.
DRAG gradient : 0
-------------------------------------------------------------------------

Design variable (FFD_CONTROL_POINT_2D) number 248.
DRAG gradient : 0
-------------------------------------------------------------------------

Design variable (FFD_CONTROL_POINT_2D) number 249.
DRAG gradient : 0
-------------------------------------------------------------------------

Design variable (FFD_CONTROL_POINT_2D) number 250.
DRAG gradient : 0
-------------------------------------------------------------------------

Design variable (FFD_CONTROL_POINT_2D) number 251.
DRAG gradient : 0
-------------------------------------------------------------------------

Design variable (FFD_CONTROL_POINT_2D) number 252.
DRAG gradient : 0
-------------------------------------------------------------------------

Design variable (FFD_CONTROL_POINT_2D) number 253.
DRAG gradient : 0
-------------------------------------------------------------------------

Design variable (FFD_CONTROL_POINT_2D) number 254.
DRAG gradient : 0
-------------------------------------------------------------------------

Design variable (FFD_CONTROL_POINT_2D) number 255.
DRAG gradient : 0
-------------------------------------------------------------------------

Design variable (FFD_CONTROL_POINT_2D) number 256.
DRAG gradient : 0
-------------------------------------------------------------------------

Design variable (FFD_CONTROL_POINT_2D) number 257.
DRAG gradient : 0
-------------------------------------------------------------------------

Design variable (FFD_CONTROL_POINT_2D) number 258.
DRAG gradient : 0
-------------------------------------------------------------------------

Design variable (FFD_CONTROL_POINT_2D) number 259.
DRAG gradient : 0
-------------------------------------------------------------------------

Design variable (FFD_CONTROL_POINT_2D) number 260.
DRAG gradient : 0
-------------------------------------------------------------------------

Design variable (FFD_CONTROL_POINT_2D) number 261.
DRAG gradient : 0
-------------------------------------------------------------------------

Design variable (FFD_CONTROL_POINT_2D) number 262.
DRAG gradient : 0
-------------------------------------------------------------------------

Design variable (FFD_CONTROL_POINT_2D) number 263.
DRAG gradient : 0
-------------------------------------------------------------------------

Design variable (FFD_CONTROL_POINT_2D) number 264.
DRAG gradient : 0
-------------------------------------------------------------------------

Design variable (FFD_CONTROL_POINT_2D) number 265.
DRAG gradient : 0
-------------------------------------------------------------------------

Design variable (FFD_CONTROL_POINT_2D) number 266.
DRAG gradient : 0
-------------------------------------------------------------------------

Design variable (FFD_CONTROL_POINT_2D) number 267.
DRAG gradient : 0
-------------------------------------------------------------------------

Design variable (FFD_CONTROL_POINT_2D) number 268.
DRAG gradient : 0
-------------------------------------------------------------------------

Design variable (FFD_CONTROL_POINT_2D) number 269.
DRAG gradient : 0
-------------------------------------------------------------------------

Design variable (FFD_CONTROL_POINT_2D) number 270.
DRAG gradient : 0
-------------------------------------------------------------------------

Design variable (FFD_CONTROL_POINT_2D) number 271.
DRAG gradient : 0
-------------------------------------------------------------------------

Design variable (FFD_CONTROL_POINT_2D) number 272.
DRAG gradient : 0
-------------------------------------------------------------------------

Design variable (FFD_CONTROL_POINT_2D) number 273.
DRAG gradient : 0
-------------------------------------------------------------------------

Design variable (FFD_CONTROL_POINT_2D) number 274.
DRAG gradient : 0
-------------------------------------------------------------------------

Design variable (FFD_CONTROL_POINT_2D) number 275.
DRAG gradient : 0
-------------------------------------------------------------------------

Design variable (FFD_CONTROL_POINT_2D) number 276.
DRAG gradient : 0
-------------------------------------------------------------------------

Design variable (FFD_CONTROL_POINT_2D) number 277.
DRAG gradient : 0
-------------------------------------------------------------------------

Design variable (FFD_CONTROL_POINT_2D) number 278.
DRAG gradient : 0
-------------------------------------------------------------------------

Design variable (FFD_CONTROL_POINT_2D) number 279.
DRAG gradient : 0
-------------------------------------------------------------------------

Design variable (FFD_CONTROL_POINT_2D) number 280.
DRAG gradient : 0
-------------------------------------------------------------------------

Design variable (FFD_CONTROL_POINT_2D) number 281.
DRAG gradient : 0
-------------------------------------------------------------------------

Design variable (FFD_CONTROL_POINT_2D) number 282.
DRAG gradient : 0
-------------------------------------------------------------------------

Design variable (FFD_CONTROL_POINT_2D) number 283.
DRAG gradient : 0
-------------------------------------------------------------------------

Design variable (FFD_CONTROL_POINT_2D) number 284.
DRAG gradient : 0
-------------------------------------------------------------------------

Design variable (FFD_CONTROL_POINT_2D) number 285.
DRAG gradient : 0
-------------------------------------------------------------------------

Design variable (FFD_CONTROL_POINT_2D) number 286.
DRAG gradient : 0
-------------------------------------------------------------------------

Design variable (FFD_CONTROL_POINT_2D) number 287.
DRAG gradient : 0
-------------------------------------------------------------------------

Design variable (FFD_CONTROL_POINT_2D) number 288.
DRAG gradient : 0
-------------------------------------------------------------------------

Design variable (FFD_CONTROL_POINT_2D) number 289.
DRAG gradient : 0
-------------------------------------------------------------------------

Design variable (FFD_CONTROL_POINT_2D) number 290.
DRAG gradient : 0
-------------------------------------------------------------------------

Design variable (FFD_CONTROL_POINT_2D) number 291.
DRAG gradient : 0
-------------------------------------------------------------------------

Design variable (FFD_CONTROL_POINT_2D) number 292.
DRAG gradient : 0
-------------------------------------------------------------------------

Design variable (FFD_CONTROL_POINT_2D) number 293.
DRAG gradient : 0
-------------------------------------------------------------------------

Design variable (FFD_CONTROL_POINT_2D) number 294.
DRAG gradient : 0
-------------------------------------------------------------------------

Design variable (FFD_CONTROL_POINT_2D) number 295.
DRAG gradient : 0
-------------------------------------------------------------------------

Design variable (FFD_CONTROL_POINT_2D) number 296.
DRAG gradient : 0
-------------------------------------------------------------------------

Design variable (FFD_CONTROL_POINT_2D) number 297.
[...]
-------------------------------------------------------------------------

Design variable (FFD_CONTROL_POINT_2D) number 332.
DRAG gradient : -0.00988535
-------------------------------------------------------------------------

Design variable (FFD_CONTROL_POINT_2D) number 333.
DRAG gradient : 0
-------------------------------------------------------------------------

Design variable (FFD_CONTROL_POINT_2D) number 334.
DRAG gradient : 0
-------------------------------------------------------------------------

Design variable (FFD_CONTROL_POINT_2D) number 335.
DRAG gradient : 0
-------------------------------------------------------------------------

Design variable (FFD_CONTROL_POINT_2D) number 336.
DRAG gradient : 0
-------------------------------------------------------------------------

Design variable (FFD_CONTROL_POINT_2D) number 337.
DRAG gradient : 0
-------------------------------------------------------------------------

Design variable (FFD_CONTROL_POINT_2D) number 338.
DRAG gradient : 0
-------------------------------------------------------------------------

Design variable (FFD_CONTROL_POINT_2D) number 339.
DRAG gradient : -0.0107129
-------------------------------------------------------------------------

Design variable (FFD_CONTROL_POINT_2D) number 340.
DRAG gradient : 0.0762731
-------------------------------------------------------------------------

Design variable (FFD_CONTROL_POINT_2D) number 341.
DRAG gradient : 0.0963685
-------------------------------------------------------------------------

Design variable (FFD_CONTROL_POINT_2D) number 342.
DRAG gradient : 0.0674215
-------------------------------------------------------------------------

Design variable (FFD_CONTROL_POINT_2D) number 343.
DRAG gradient : 0.0304263
-------------------------------------------------------------------------

Design variable (FFD_CONTROL_POINT_2D) number 344.
DRAG gradient : 0.00348808
-------------------------------------------------------------------------

Design variable (FFD_CONTROL_POINT_2D) number 345.
DRAG gradient : -0.0143778
-------------------------------------------------------------------------

Design variable (FFD_CONTROL_POINT_2D) number 346.
DRAG gradient : -0.0259966
-------------------------------------------------------------------------

Design variable (FFD_CONTROL_POINT_2D) number 347.
DRAG gradient : -0.0286795
-------------------------------------------------------------------------

Design variable (FFD_CONTROL_POINT_2D) number 348.
DRAG gradient : -0.0183495
-------------------------------------------------------------------------

Design variable (FFD_CONTROL_POINT_2D) number 349.
DRAG gradient : 0.00226038
-------------------------------------------------------------------------

Design variable (FFD_CONTROL_POINT_2D) number 350.
DRAG gradient : 0.0212496
-------------------------------------------------------------------------

Design variable (FFD_CONTROL_POINT_2D) number 351.
DRAG gradient : 0.0254309
-------------------------------------------------------------------------

Design variable (FFD_CONTROL_POINT_2D) number 352.
DRAG gradient : 0.01122
-------------------------------------------------------------------------

Design variable (FFD_CONTROL_POINT_2D) number 353.
DRAG gradient : -0.0118624
-------------------------------------------------------------------------

Design variable (FFD_CONTROL_POINT_2D) number 354.
DRAG gradient : 0
-------------------------------------------------------------------------

Design variable (FFD_CONTROL_POINT_2D) number 355.
DRAG gradient : 0
-------------------------------------------------------------------------

Design variable (FFD_CONTROL_POINT_2D) number 356.
DRAG gradient : 0
-------------------------------------------------------------------------

Design variable (FFD_CONTROL_POINT_2D) number 357.
DRAG gradient : 0
-------------------------------------------------------------------------

Design variable (FFD_CONTROL_POINT_2D) number 358.
DRAG gradient : 0
-------------------------------------------------------------------------

Design variable (FFD_CONTROL_POINT_2D) number 359.
DRAG gradient : 0
-------------------------------------------------------------------------

Design variable (FFD_CONTROL_POINT_2D) number 360.
DRAG gradient : -0.00892738
-------------------------------------------------------------------------

Design variable (FFD_CONTROL_POINT_2D) number 361.
DRAG gradient : 0.0635609
-------------------------------------------------------------------------

Design variable (FFD_CONTROL_POINT_2D) number 362.
DRAG gradient : 0.0803071
-------------------------------------------------------------------------

Design variable (FFD_CONTROL_POINT_2D) number 363.
DRAG gradient : 0.0561845
-------------------------------------------------------------------------

Design variable (FFD_CONTROL_POINT_2D) number 364.
DRAG gradient : 0.0253552
-------------------------------------------------------------------------

Design variable (FFD_CONTROL_POINT_2D) number 365.
DRAG gradient : 0.00290673
-------------------------------------------------------------------------

Design variable (FFD_CONTROL_POINT_2D) number 366.
DRAG gradient : -0.0119815
-------------------------------------------------------------------------

Design variable (FFD_CONTROL_POINT_2D) number 367.
DRAG gradient : -0.0216639
-------------------------------------------------------------------------

Design variable (FFD_CONTROL_POINT_2D) number 368.
DRAG gradient : -0.0238996
-------------------------------------------------------------------------

Design variable (FFD_CONTROL_POINT_2D) number 369.
DRAG gradient : -0.0152912
-------------------------------------------------------------------------

Design variable (FFD_CONTROL_POINT_2D) number 370.
DRAG gradient : 0.00188365
-------------------------------------------------------------------------

Design variable (FFD_CONTROL_POINT_2D) number 371.
DRAG gradient : 0.017708
-------------------------------------------------------------------------

Design variable (FFD_CONTROL_POINT_2D) number 372.
DRAG gradient : 0.0211924
-------------------------------------------------------------------------

Design variable (FFD_CONTROL_POINT_2D) number 373.
DRAG gradient : 0.00935
-------------------------------------------------------------------------

Design variable (FFD_CONTROL_POINT_2D) number 374.
DRAG gradient : -0.00988535
-------------------------------------------------------------------------

Design variable (FFD_CONTROL_POINT_2D) number 375.
DRAG gradient : 0
-------------------------------------------------------------------------

Design variable (FFD_CONTROL_POINT_2D) number 376.
DRAG gradient : 0
-------------------------------------------------------------------------

Design variable (FFD_CONTROL_POINT_2D) number 377.
DRAG gradient : 0
-------------------------------------------------------------------------

Design variable (FFD_CONTROL_POINT_2D) number 378.
DRAG gradient : 0
-------------------------------------------------------------------------

Design variable (FFD_CONTROL_POINT_2D) number 379.
DRAG gradient : 0
-------------------------------------------------------------------------

Design variable (FFD_CONTROL_POINT_2D) number 380.
DRAG gradient : 0
-------------------------------------------------------------------------

Design variable (FFD_CONTROL_POINT_2D) number 381.
DRAG gradient : -0.00510136
-------------------------------------------------------------------------

Design variable (FFD_CONTROL_POINT_2D) number 382.
DRAG gradient : 0.0363205
-------------------------------------------------------------------------

Design variable (FFD_CONTROL_POINT_2D) number 383.
DRAG gradient : 0.0458898
-------------------------------------------------------------------------

Design variable (FFD_CONTROL_POINT_2D) number 384.
DRAG gradient : 0.0321055
-------------------------------------------------------------------------

Design variable (FFD_CONTROL_POINT_2D) number 385.
DRAG gradient : 0.0144887
-------------------------------------------------------------------------

Design variable (FFD_CONTROL_POINT_2D) number 386.
DRAG gradient : 0.00166099
-------------------------------------------------------------------------

Design variable (FFD_CONTROL_POINT_2D) number 387.
DRAG gradient : -0.00684656
-------------------------------------------------------------------------

Design variable (FFD_CONTROL_POINT_2D) number 388.
DRAG gradient : -0.0123793
-------------------------------------------------------------------------

Design variable (FFD_CONTROL_POINT_2D) number 389.
DRAG gradient : -0.0136569
-------------------------------------------------------------------------

Design variable (FFD_CONTROL_POINT_2D) number 390.
DRAG gradient : -0.00873784
-------------------------------------------------------------------------

Design variable (FFD_CONTROL_POINT_2D) number 391.
DRAG gradient : 0.00107637
-------------------------------------------------------------------------

Design variable (FFD_CONTROL_POINT_2D) number 392.
DRAG gradient : 0.0101188
-------------------------------------------------------------------------

Design variable (FFD_CONTROL_POINT_2D) number 393.
DRAG gradient : 0.0121099
-------------------------------------------------------------------------

Design variable (FFD_CONTROL_POINT_2D) number 394.
DRAG gradient : 0.00534285
-------------------------------------------------------------------------

Design variable (FFD_CONTROL_POINT_2D) number 395.
DRAG gradient : -0.00564877
-------------------------------------------------------------------------

Design variable (FFD_CONTROL_POINT_2D) number 396.
DRAG gradient : 0
-------------------------------------------------------------------------

Design variable (FFD_CONTROL_POINT_2D) number 397.
DRAG gradient : 0
-------------------------------------------------------------------------

Design variable (FFD_CONTROL_POINT_2D) number 398.
DRAG gradient : 0
-------------------------------------------------------------------------

Design variable (FFD_CONTROL_POINT_2D) number 399.
DRAG gradient : 0
-------------------------------------------------------------------------

Design variable (FFD_CONTROL_POINT_2D) number 400.
DRAG gradient : 0
-------------------------------------------------------------------------

Design variable (FFD_CONTROL_POINT_2D) number 401.
DRAG gradient : 0
-------------------------------------------------------------------------

Design variable (FFD_CONTROL_POINT_2D) number 402.
DRAG gradient : -0.00191301
-------------------------------------------------------------------------

Design variable (FFD_CONTROL_POINT_2D) number 403.
DRAG gradient : 0.0136202
-------------------------------------------------------------------------

Design variable (FFD_CONTROL_POINT_2D) number 404.
DRAG gradient : 0.0172087
-------------------------------------------------------------------------

Design variable (FFD_CONTROL_POINT_2D) number 405.
DRAG gradient : 0.0120395
-------------------------------------------------------------------------

Design variable (FFD_CONTROL_POINT_2D) number 406.
DRAG gradient : 0.00543326
-------------------------------------------------------------------------

Design variable (FFD_CONTROL_POINT_2D) number 407.
DRAG gradient : 0.000622871
-------------------------------------------------------------------------

Design variable (FFD_CONTROL_POINT_2D) number 408.
DRAG gradient : -0.00256746
-------------------------------------------------------------------------

Design variable (FFD_CONTROL_POINT_2D) number 409.
DRAG gradient : -0.00464225
-------------------------------------------------------------------------

Design variable (FFD_CONTROL_POINT_2D) number 410.
DRAG gradient : -0.00512134
-------------------------------------------------------------------------

Design variable (FFD_CONTROL_POINT_2D) number 411.
DRAG gradient : -0.00327669
-------------------------------------------------------------------------

Design variable (FFD_CONTROL_POINT_2D) number 412.
DRAG gradient : 0.000403639
-------------------------------------------------------------------------

Design variable (FFD_CONTROL_POINT_2D) number 413.
DRAG gradient : 0.00379457
-------------------------------------------------------------------------

Design variable (FFD_CONTROL_POINT_2D) number 414.
DRAG gradient : 0.00454123
-------------------------------------------------------------------------

Design variable (FFD_CONTROL_POINT_2D) number 415.
DRAG gradient : 0.00200357
-------------------------------------------------------------------------

Design variable (FFD_CONTROL_POINT_2D) number 416.
DRAG gradient : -0.00211829
-------------------------------------------------------------------------

Design variable (FFD_CONTROL_POINT_2D) number 417.
DRAG gradient : 0
-------------------------------------------------------------------------

Design variable (FFD_CONTROL_POINT_2D) number 418.
DRAG gradient : 0
-------------------------------------------------------------------------

Design variable (FFD_CONTROL_POINT_2D) number 419.
DRAG gradient : 0
-------------------------------------------------------------------------

Design variable (FFD_CONTROL_POINT_2D) number 420.
DRAG gradient : 0
-------------------------------------------------------------------------

Design variable (FFD_CONTROL_POINT_2D) number 421.
DRAG gradient : 0
-------------------------------------------------------------------------

Design variable (FFD_CONTROL_POINT_2D) number 422.
DRAG gradient : 0
-------------------------------------------------------------------------

Design variable (FFD_CONTROL_POINT_2D) number 423.
DRAG gradient : -0.000425114
-------------------------------------------------------------------------

Design variable (FFD_CONTROL_POINT_2D) number 424.
DRAG gradient : 0.00302671
-------------------------------------------------------------------------

Design variable (FFD_CONTROL_POINT_2D) number 425.
DRAG gradient : 0.00382415
-------------------------------------------------------------------------

Design variable (FFD_CONTROL_POINT_2D) number 426.
DRAG gradient : 0.00267545
-------------------------------------------------------------------------

Design variable (FFD_CONTROL_POINT_2D) number 427.
DRAG gradient : 0.00120739
-------------------------------------------------------------------------

Design variable (FFD_CONTROL_POINT_2D) number 428.
DRAG gradient : 0.000138416
-------------------------------------------------------------------------

Design variable (FFD_CONTROL_POINT_2D) number 429.
DRAG gradient : -0.000570547
-------------------------------------------------------------------------

Design variable (FFD_CONTROL_POINT_2D) number 430.
DRAG gradient : -0.00103161
-------------------------------------------------------------------------

Design variable (FFD_CONTROL_POINT_2D) number 431.
DRAG gradient : -0.00113808
-------------------------------------------------------------------------

Design variable (FFD_CONTROL_POINT_2D) number 432.
DRAG gradient : -0.000728154
-------------------------------------------------------------------------

Design variable (FFD_CONTROL_POINT_2D) number 433.
DRAG gradient : 8.96977e-05
-------------------------------------------------------------------------

Design variable (FFD_CONTROL_POINT_2D) number 434.
DRAG gradient : 0.000843237
-------------------------------------------------------------------------

Design variable (FFD_CONTROL_POINT_2D) number 435.
DRAG gradient : 0.00100916
-------------------------------------------------------------------------

Design variable (FFD_CONTROL_POINT_2D) number 436.
DRAG gradient : 0.000445238
-------------------------------------------------------------------------

Design variable (FFD_CONTROL_POINT_2D) number 437.
DRAG gradient : -0.000470731
-------------------------------------------------------------------------

Design variable (FFD_CONTROL_POINT_2D) number 438.
DRAG gradient : 0
-------------------------------------------------------------------------

Design variable (FFD_CONTROL_POINT_2D) number 439.
DRAG gradient : 0
-------------------------------------------------------------------------

Design variable (FFD_CONTROL_POINT_2D) number 440.
DRAG gradient : 0
-------------------------------------------------------------------------

Design variable (FFD_CONTROL_POINT_2D) number 441.
DRAG gradient : 0
-------------------------------------------------------------------------

Design variable (FFD_CONTROL_POINT_2D) number 442.
DRAG gradient : 0
-------------------------------------------------------------------------

Design variable (FFD_CONTROL_POINT_2D) number 443.
DRAG gradient : 0
-------------------------------------------------------------------------

Design variable (FFD_CONTROL_POINT_2D) number 444.
DRAG gradient : -4.25114e-05
-------------------------------------------------------------------------

Design variable (FFD_CONTROL_POINT_2D) number 445.
DRAG gradient : 0.000302671
-------------------------------------------------------------------------

Design variable (FFD_CONTROL_POINT_2D) number 446.
DRAG gradient : 0.000382415
-------------------------------------------------------------------------

Design variable (FFD_CONTROL_POINT_2D) number 447.
DRAG gradient : 0.000267545
-------------------------------------------------------------------------

Design variable (FFD_CONTROL_POINT_2D) number 448.
DRAG gradient : 0.000120739
-------------------------------------------------------------------------

Design variable (FFD_CONTROL_POINT_2D) number 449.
DRAG gradient : 1.38416e-05
-------------------------------------------------------------------------

Design variable (FFD_CONTROL_POINT_2D) number 450.
DRAG gradient : -5.70547e-05
-------------------------------------------------------------------------

Design variable (FFD_CONTROL_POINT_2D) number 451.
DRAG gradient : -0.000103161
-------------------------------------------------------------------------

Design variable (FFD_CONTROL_POINT_2D) number 452.
DRAG gradient : -0.000113808
-------------------------------------------------------------------------

Design variable (FFD_CONTROL_POINT_2D) number 453.
DRAG gradient : -7.28154e-05
-------------------------------------------------------------------------

Design variable (FFD_CONTROL_POINT_2D) number 454.
DRAG gradient : 8.96977e-06
-------------------------------------------------------------------------

Design variable (FFD_CONTROL_POINT_2D) number 455.
DRAG gradient : 8.43237e-05
-------------------------------------------------------------------------

Design variable (FFD_CONTROL_POINT_2D) number 456.
DRAG gradient : 0.000100916
-------------------------------------------------------------------------

Design variable (FFD_CONTROL_POINT_2D) number 457.
DRAG gradient : 4.45238e-05
-------------------------------------------------------------------------

Design variable (FFD_CONTROL_POINT_2D) number 458.
DRAG gradient : -4.70731e-05
-------------------------------------------------------------------------

Design variable (FFD_CONTROL_POINT_2D) number 459.
DRAG gradient : 0
-------------------------------------------------------------------------

Design variable (FFD_CONTROL_POINT_2D) number 460.
DRAG gradient : 0
-------------------------------------------------------------------------

Design variable (FFD_CONTROL_POINT_2D) number 461.
DRAG gradient : 0
-------------------------------------------------------------------------

------------------------- Finalize Solver  -------------------------
Deleted CNumerics container.
Deleted CSolver container.
Deleted CGeometry container.
Deleted CSurfaceMovement class.
Deleted CVolumetricMovement class.
Deleted CConfig container.
Deleted COutput class.

------------------------- Exit Success (SU2_DOT) ------------------------

